<?xml version='1.0' encoding='utf-8'?>
<febio_spec version="4.0">
	<Module type="fluid" />
	<Control>
		<analysis>DYNAMIC</analysis>
		<time_steps>25</time_steps>
		<step_size>0.1</step_size>
		<plot_zero_state>0</plot_zero_state>
		<plot_range>0,-1</plot_range>
		<plot_level>PLOT_MAJOR_ITRS</plot_level>
		<output_level>OUTPUT_MAJOR_ITRS</output_level>
		<plot_stride>1</plot_stride>
		<adaptor_re_solve>1</adaptor_re_solve>
		<time_stepper type="default">
			<max_retries>5</max_retries>
			<opt_iter>50</opt_iter>
			<dtmin>0</dtmin>
			<dtmax>0.1</dtmax>
			<aggressiveness>0</aggressiveness>
			<cutback>0.5</cutback>
			<dtforce>0</dtforce>
		</time_stepper>
		<solver type="fluid">
			<symmetric_stiffness>non-symmetric</symmetric_stiffness>
			<equation_scheme>staggered</equation_scheme>
			<equation_order>default</equation_order>
			<optimize_bw>0</optimize_bw>
			<lstol>0.9</lstol>
			<lsmin>0.01</lsmin>
			<lsiter>5</lsiter>
			<max_refs>5</max_refs>
			<check_zero_diagonal>0</check_zero_diagonal>
			<zero_diagonal_tol>0</zero_diagonal_tol>
			<force_partition>0</force_partition>
			<reform_each_time_step>0</reform_each_time_step>
			<reform_augment>0</reform_augment>
			<diverge_reform>0</diverge_reform>
			<min_residual>1e-20</min_residual>
			<max_residual>1e+20</max_residual>
			<vtol>0.001</vtol>
			<ftol>0.001</ftol>
			<rhoi>0</rhoi>
			<etol>0.01</etol>
			<rtol>0.001</rtol>
			<predictor>0</predictor>
			<min_volume_ratio>0</min_volume_ratio>
			<qn_method type="Broyden">
				<max_ups>50</max_ups>
				<max_buffer_size>0</max_buffer_size>
				<cycle_buffer>1</cycle_buffer>
				<cmax>100000</cmax>
			</qn_method>
		</solver>
	</Control>
	<Globals>
		<Constants>
			<T>0</T>
			<R>0</R>
			<Fc>0</Fc>
		</Constants>
	</Globals>
	<Material>
		<material id="1" name="Material1" type="fluid">
			<density>1</density>
			<k>1e+09</k>
			<viscous type="Newtonian fluid">
				<kappa>0</kappa>
				<mu>0.1</mu>
			</viscous>
		</material>
	</Material>
	<Mesh>
		<Nodes name="Object1">
			<node id="1">1, 11, 1</node>
			<node id="2">1, 11, 1</node>
			<node id="3">1, 11, 1</node>
			<node id="4">1, 11, 1</node>
			<node id="5">1, 1, 1</node>
		</Nodes>
		<Elements type="penta6" name="Part1">
			<elem id="1">1,2,3,602,603,604</elem>
			<elem id="2">1,3,4,602,604,605</elem>
			<elem id="3">1,4,5,602,605,606</elem>
			<elem id="4">1,5,6,602,606,607</elem>
			<elem id="5">1,6,7,602,607,608</elem>
			<elem id="6">1,7,8,602,608,609</elem>
			<elem id="7">1,8,9,602,609,610</elem>
			<elem id="8">1,9,10,602,610,611</elem>
			<elem id="9">1,10,11,602,611,612</elem>
			<elem id="10">1,11,12,602,612,613</elem>
			<elem id="11">1,12,13,602,613,614</elem>
			<elem id="12">1,13,14,602,614,615</elem>
			<elem id="13">1,14,15,602,615,616</elem>
			<elem id="14">1,15,16,602,616,617</elem>
			<elem id="15">1,16,17,602,617,618</elem>
			<elem id="16">1,17,18,602,618,619</elem>
			<elem id="17">1,18,19,602,619,620</elem>
			<elem id="18">1,19,20,602,620,621</elem>
			<elem id="19">1,20,21,602,621,622</elem>
			<elem id="20">1,21,22,602,622,623</elem>
<!-- ... 1180 like lines cut -->
		</Elements>
		<Elements type="hex8" name="Part1__2">
			<elem id="1201">2,42,43,3,603,643,644,604</elem>
			<elem id="1202">3,43,44,4,604,644,645,605</elem>
			<elem id="1203">4,44,45,5,605,645,646,606</elem>
			<elem id="1204">5,45,46,6,606,646,647,607</elem>
			<elem id="1205">6,46,47,7,607,647,648,608</elem>
			<elem id="1206">7,47,48,8,608,648,649,609</elem>
			<elem id="1207">8,48,49,9,609,649,650,610</elem>
			<elem id="1208">9,49,50,10,610,650,651,611</elem>
			<elem id="1209">10,50,51,11,611,651,652,612</elem>
			<elem id="1210">11,51,52,12,612,652,653,613</elem>
			<elem id="1211">12,52,53,13,613,653,654,614</elem>
			<elem id="1212">13,53,54,14,614,654,655,615</elem>
			<elem id="1213">14,54,55,15,615,655,656,616</elem>
			<elem id="1214">15,55,56,16,616,656,657,617</elem>
			<elem id="1215">16,56,57,17,617,657,658,618</elem>
			<elem id="1216">17,57,58,18,618,658,659,619</elem>
			<elem id="1217">18,58,59,19,619,659,660,620</elem>
			<elem id="1218">19,59,60,20,620,660,661,621</elem>
			<elem id="1219">20,60,61,21,621,661,662,622</elem>
			<elem id="1220">21,61,62,22,622,662,663,623</elem>
<!-- ... 16780 like lines cut -->
		</Elements>
		<Edge name="ZeroFluidDilatation3">
			<line2 id="1">562,563</line2>
			<line2 id="2">563,564</line2>
			<line2 id="3">564,565</line2>
			<line2 id="4">565,566</line2>
			<line2 id="5">566,567</line2>
			<line2 id="6">567,568</line2>
			<line2 id="7">568,569</line2>
			<line2 id="8">569,570</line2>
			<line2 id="9">570,571</line2>
			<line2 id="10">571,572</line2>
			<line2 id="11">572,573</line2>
			<line2 id="12">573,574</line2>
			<line2 id="13">574,575</line2>
			<line2 id="14">575,576</line2>
			<line2 id="15">576,577</line2>
			<line2 id="16">577,578</line2>
			<line2 id="17">578,579</line2>
			<line2 id="18">579,580</line2>
			<line2 id="19">580,581</line2>
			<line2 id="20">581,582</line2>
<!-- ... 20 like lines cut -->
		</Edge>
		<Surface name="ZeroFluidVelocity1">
			<quad4 id="1">562,563,1164,1163</quad4>
			<quad4 id="2">563,564,1165,1164</quad4>
			<quad4 id="3">564,565,1166,1165</quad4>
			<quad4 id="4">565,566,1167,1166</quad4>
			<quad4 id="5">566,567,1168,1167</quad4>
			<quad4 id="6">567,568,1169,1168</quad4>
			<quad4 id="7">568,569,1170,1169</quad4>
			<quad4 id="8">569,570,1171,1170</quad4>
			<quad4 id="9">570,571,1172,1171</quad4>
			<quad4 id="10">571,572,1173,1172</quad4>
			<quad4 id="11">1163,1164,1765,1764</quad4>
			<quad4 id="12">1164,1165,1766,1765</quad4>
			<quad4 id="13">1165,1166,1767,1766</quad4>
			<quad4 id="14">1166,1167,1768,1767</quad4>
			<quad4 id="15">1167,1168,1769,1768</quad4>
			<quad4 id="16">1168,1169,1770,1769</quad4>
			<quad4 id="17">1169,1170,1771,1770</quad4>
			<quad4 id="18">1170,1171,1772,1771</quad4>
			<quad4 id="19">1171,1172,1773,1772</quad4>
			<quad4 id="20">1172,1173,1774,1773</quad4>
<!-- ... 1180 like lines cut -->
		</Surface>
		<Surface name="ZeroFluidDilatation2">
			<tri3 id="1">18031,18032,18033</tri3>
			<quad4 id="2">18032,18072,18073,18033</quad4>
			<quad4 id="3">18072,18112,18113,18073</quad4>
			<quad4 id="4">18112,18152,18153,18113</quad4>
			<quad4 id="5">18152,18192,18193,18153</quad4>
			<quad4 id="6">18192,18232,18233,18193</quad4>
			<quad4 id="7">18232,18272,18273,18233</quad4>
			<quad4 id="8">18272,18312,18313,18273</quad4>
			<quad4 id="9">18312,18352,18353,18313</quad4>
			<quad4 id="10">18352,18392,18393,18353</quad4>
			<quad4 id="11">18392,18432,18433,18393</quad4>
			<quad4 id="12">18432,18472,18473,18433</quad4>
			<quad4 id="13">18472,18512,18513,18473</quad4>
			<quad4 id="14">18512,18552,18553,18513</quad4>
			<quad4 id="15">18552,18592,18593,18553</quad4>
			<tri3 id="16">18031,18033,18034</tri3>
			<quad4 id="17">18033,18073,18074,18034</quad4>
			<quad4 id="18">18073,18113,18114,18074</quad4>
			<quad4 id="19">18113,18153,18154,18114</quad4>
			<quad4 id="20">18153,18193,18194,18154</quad4>
			<quad4 id="21">18193,18233,18234,18194</quad4>
			<quad4 id="22">18233,18273,18274,18234</quad4>
			<quad4 id="23">18273,18313,18314,18274</quad4>
			<quad4 id="24">18313,18353,18354,18314</quad4>
			<quad4 id="25">18353,18393,18394,18354</quad4>
			<quad4 id="26">18393,18433,18434,18394</quad4>
			<quad4 id="27">18433,18473,18474,18434</quad4>
			<quad4 id="28">18473,18513,18514,18474</quad4>
			<quad4 id="29">18513,18553,18554,18514</quad4>
			<quad4 id="30">18553,18593,18594,18554</quad4>
			<tri3 id="31">18031,18034,18035</tri3>
			<quad4 id="32">18034,18074,18075,18035</quad4>
			<quad4 id="33">18074,18114,18115,18075</quad4>
			<quad4 id="34">18114,18154,18155,18115</quad4>
			<quad4 id="35">18154,18194,18195,18155</quad4>
			<quad4 id="36">18194,18234,18235,18195</quad4>
			<quad4 id="37">18234,18274,18275,18235</quad4>
			<quad4 id="38">18274,18314,18315,18275</quad4>
			<quad4 id="39">18314,18354,18355,18315</quad4>
			<quad4 id="40">18354,18394,18395,18355</quad4>
			<quad4 id="41">18394,18434,18435,18395</quad4>
			<quad4 id="42">18434,18474,18475,18435</quad4>
			<quad4 id="43">18474,18514,18515,18475</quad4>
			<quad4 id="44">18514,18554,18555,18515</quad4>
			<quad4 id="45">18554,18594,18595,18555</quad4>
			<tri3 id="46">18031,18035,18036</tri3>
			<quad4 id="47">18035,18075,18076,18036</quad4>
			<quad4 id="48">18075,18115,18116,18076</quad4>
			<quad4 id="49">18115,18155,18156,18116</quad4>
			<quad4 id="50">18155,18195,18196,18156</quad4>
			<quad4 id="51">18195,18235,18236,18196</quad4>
			<quad4 id="52">18235,18275,18276,18236</quad4>
			<quad4 id="53">18275,18315,18316,18276</quad4>
			<quad4 id="54">18315,18355,18356,18316</quad4>
			<quad4 id="55">18355,18395,18396,18356</quad4>
			<quad4 id="56">18395,18435,18436,18396</quad4>
			<quad4 id="57">18435,18475,18476,18436</quad4>
			<quad4 id="58">18475,18515,18516,18476</quad4>
			<quad4 id="59">18515,18555,18556,18516</quad4>
			<quad4 id="60">18555,18595,18596,18556</quad4>
			<tri3 id="61">18031,18036,18037</tri3>
			<quad4 id="62">18036,18076,18077,18037</quad4>
			<quad4 id="63">18076,18116,18117,18077</quad4>
			<quad4 id="64">18116,18156,18157,18117</quad4>
			<quad4 id="65">18156,18196,18197,18157</quad4>
			<quad4 id="66">18196,18236,18237,18197</quad4>
			<quad4 id="67">18236,18276,18277,18237</quad4>
			<quad4 id="68">18276,18316,18317,18277</quad4>
			<quad4 id="69">18316,18356,18357,18317</quad4>
			<quad4 id="70">18356,18396,18397,18357</quad4>
			<quad4 id="71">18396,18436,18437,18397</quad4>
			<quad4 id="72">18436,18476,18477,18437</quad4>
			<quad4 id="73">18476,18516,18517,18477</quad4>
			<quad4 id="74">18516,18556,18557,18517</quad4>
			<quad4 id="75">18556,18596,18597,18557</quad4>
			<tri3 id="76">18031,18037,18038</tri3>
			<quad4 id="77">18037,18077,18078,18038</quad4>
			<quad4 id="78">18077,18117,18118,18078</quad4>
			<quad4 id="79">18117,18157,18158,18118</quad4>
			<quad4 id="80">18157,18197,18198,18158</quad4>
			<quad4 id="81">18197,18237,18238,18198</quad4>
			<quad4 id="82">18237,18277,18278,18238</quad4>
			<quad4 id="83">18277,18317,18318,18278</quad4>
			<quad4 id="84">18317,18357,18358,18318</quad4>
			<quad4 id="85">18357,18397,18398,18358</quad4>
			<quad4 id="86">18397,18437,18438,18398</quad4>
			<quad4 id="87">18437,18477,18478,18438</quad4>
			<quad4 id="88">18477,18517,18518,18478</quad4>
			<quad4 id="89">18517,18557,18558,18518</quad4>
			<quad4 id="90">18557,18597,18598,18558</quad4>
			<tri3 id="91">18031,18038,18039</tri3>
			<quad4 id="92">18038,18078,18079,18039</quad4>
			<quad4 id="93">18078,18118,18119,18079</quad4>
			<quad4 id="94">18118,18158,18159,18119</quad4>
			<quad4 id="95">18158,18198,18199,18159</quad4>
			<quad4 id="96">18198,18238,18239,18199</quad4>
			<quad4 id="97">18238,18278,18279,18239</quad4>
			<quad4 id="98">18278,18318,18319,18279</quad4>
			<quad4 id="99">18318,18358,18359,18319</quad4>
			<quad4 id="100">18358,18398,18399,18359</quad4>
			<quad4 id="101">18398,18438,18439,18399</quad4>
			<quad4 id="102">18438,18478,18479,18439</quad4>
			<quad4 id="103">18478,18518,18519,18479</quad4>
			<quad4 id="104">18518,18558,18559,18519</quad4>
			<quad4 id="105">18558,18598,18599,18559</quad4>
			<tri3 id="106">18031,18039,18040</tri3>
			<quad4 id="107">18039,18079,18080,18040</quad4>
			<quad4 id="108">18079,18119,18120,18080</quad4>
			<quad4 id="109">18119,18159,18160,18120</quad4>
			<quad4 id="110">18159,18199,18200,18160</quad4>
			<quad4 id="111">18199,18239,18240,18200</quad4>
			<quad4 id="112">18239,18279,18280,18240</quad4>
			<quad4 id="113">18279,18319,18320,18280</quad4>
			<quad4 id="114">18319,18359,18360,18320</quad4>
			<quad4 id="115">18359,18399,18400,18360</quad4>
			<quad4 id="116">18399,18439,18440,18400</quad4>
			<quad4 id="117">18439,18479,18480,18440</quad4>
			<quad4 id="118">18479,18519,18520,18480</quad4>
			<quad4 id="119">18519,18559,18560,18520</quad4>
			<quad4 id="120">18559,18599,18600,18560</quad4>
			<tri3 id="121">18031,18040,18041</tri3>
			<quad4 id="122">18040,18080,18081,18041</quad4>
			<quad4 id="123">18080,18120,18121,18081</quad4>
			<quad4 id="124">18120,18160,18161,18121</quad4>
			<quad4 id="125">18160,18200,18201,18161</quad4>
			<quad4 id="126">18200,18240,18241,18201</quad4>
			<quad4 id="127">18240,18280,18281,18241</quad4>
			<quad4 id="128">18280,18320,18321,18281</quad4>
			<quad4 id="129">18320,18360,18361,18321</quad4>
			<quad4 id="130">18360,18400,18401,18361</quad4>
			<quad4 id="131">18400,18440,18441,18401</quad4>
			<quad4 id="132">18440,18480,18481,18441</quad4>
			<quad4 id="133">18480,18520,18521,18481</quad4>
			<quad4 id="134">18520,18560,18561,18521</quad4>
			<quad4 id="135">18560,18600,18601,18561</quad4>
			<tri3 id="136">18031,18041,18042</tri3>
			<quad4 id="137">18041,18081,18082,18042</quad4>
			<quad4 id="138">18081,18121,18122,18082</quad4>
			<quad4 id="139">18121,18161,18162,18122</quad4>
			<quad4 id="140">18161,18201,18202,18162</quad4>
			<quad4 id="141">18201,18241,18242,18202</quad4>
			<quad4 id="142">18241,18281,18282,18242</quad4>
			<quad4 id="143">18281,18321,18322,18282</quad4>
			<quad4 id="144">18321,18361,18362,18322</quad4>
			<quad4 id="145">18361,18401,18402,18362</quad4>
			<quad4 id="146">18401,18441,18442,18402</quad4>
			<quad4 id="147">18441,18481,18482,18442</quad4>
			<quad4 id="148">18481,18521,18522,18482</quad4>
			<quad4 id="149">18521,18561,18562,18522</quad4>
			<quad4 id="150">18561,18601,18602,18562</quad4>
			<tri3 id="151">18031,18042,18043</tri3>
			<quad4 id="152">18042,18082,18083,18043</quad4>
			<quad4 id="153">18082,18122,18123,18083</quad4>
			<quad4 id="154">18122,18162,18163,18123</quad4>
			<quad4 id="155">18162,18202,18203,18163</quad4>
			<quad4 id="156">18202,18242,18243,18203</quad4>
			<quad4 id="157">18242,18282,18283,18243</quad4>
			<quad4 id="158">18282,18322,18323,18283</quad4>
			<quad4 id="159">18322,18362,18363,18323</quad4>
			<quad4 id="160">18362,18402,18403,18363</quad4>
			<quad4 id="161">18402,18442,18443,18403</quad4>
			<quad4 id="162">18442,18482,18483,18443</quad4>
			<quad4 id="163">18482,18522,18523,18483</quad4>
			<quad4 id="164">18522,18562,18563,18523</quad4>
			<quad4 id="165">18562,18602,18603,18563</quad4>
			<tri3 id="166">18031,18043,18044</tri3>
			<quad4 id="167">18043,18083,18084,18044</quad4>
			<quad4 id="168">18083,18123,18124,18084</quad4>
			<quad4 id="169">18123,18163,18164,18124</quad4>
			<quad4 id="170">18163,18203,18204,18164</quad4>
			<quad4 id="171">18203,18243,18244,18204</quad4>
			<quad4 id="172">18243,18283,18284,18244</quad4>
			<quad4 id="173">18283,18323,18324,18284</quad4>
			<quad4 id="174">18323,18363,18364,18324</quad4>
			<quad4 id="175">18363,18403,18404,18364</quad4>
			<quad4 id="176">18403,18443,18444,18404</quad4>
			<quad4 id="177">18443,18483,18484,18444</quad4>
			<quad4 id="178">18483,18523,18524,18484</quad4>
			<quad4 id="179">18523,18563,18564,18524</quad4>
			<quad4 id="180">18563,18603,18604,18564</quad4>
			<tri3 id="181">18031,18044,18045</tri3>
			<quad4 id="182">18044,18084,18085,18045</quad4>
			<quad4 id="183">18084,18124,18125,18085</quad4>
			<quad4 id="184">18124,18164,18165,18125</quad4>
			<quad4 id="185">18164,18204,18205,18165</quad4>
			<quad4 id="186">18204,18244,18245,18205</quad4>
			<quad4 id="187">18244,18284,18285,18245</quad4>
			<quad4 id="188">18284,18324,18325,18285</quad4>
			<quad4 id="189">18324,18364,18365,18325</quad4>
			<quad4 id="190">18364,18404,18405,18365</quad4>
			<quad4 id="191">18404,18444,18445,18405</quad4>
			<quad4 id="192">18444,18484,18485,18445</quad4>
			<quad4 id="193">18484,18524,18525,18485</quad4>
			<quad4 id="194">18524,18564,18565,18525</quad4>
			<quad4 id="195">18564,18604,18605,18565</quad4>
			<tri3 id="196">18031,18045,18046</tri3>
			<quad4 id="197">18045,18085,18086,18046</quad4>
			<quad4 id="198">18085,18125,18126,18086</quad4>
			<quad4 id="199">18125,18165,18166,18126</quad4>
			<quad4 id="200">18165,18205,18206,18166</quad4>
			<quad4 id="201">18205,18245,18246,18206</quad4>
			<quad4 id="202">18245,18285,18286,18246</quad4>
			<quad4 id="203">18285,18325,18326,18286</quad4>
			<quad4 id="204">18325,18365,18366,18326</quad4>
			<quad4 id="205">18365,18405,18406,18366</quad4>
			<quad4 id="206">18405,18445,18446,18406</quad4>
			<quad4 id="207">18445,18485,18486,18446</quad4>
			<quad4 id="208">18485,18525,18526,18486</quad4>
			<quad4 id="209">18525,18565,18566,18526</quad4>
			<quad4 id="210">18565,18605,18606,18566</quad4>
			<tri3 id="211">18031,18046,18047</tri3>
			<quad4 id="212">18046,18086,18087,18047</quad4>
			<quad4 id="213">18086,18126,18127,18087</quad4>
			<quad4 id="214">18126,18166,18167,18127</quad4>
			<quad4 id="215">18166,18206,18207,18167</quad4>
			<quad4 id="216">18206,18246,18247,18207</quad4>
			<quad4 id="217">18246,18286,18287,18247</quad4>
			<quad4 id="218">18286,18326,18327,18287</quad4>
			<quad4 id="219">18326,18366,18367,18327</quad4>
			<quad4 id="220">18366,18406,18407,18367</quad4>
			<quad4 id="221">18406,18446,18447,18407</quad4>
			<quad4 id="222">18446,18486,18487,18447</quad4>
			<quad4 id="223">18486,18526,18527,18487</quad4>
			<quad4 id="224">18526,18566,18567,18527</quad4>
			<quad4 id="225">18566,18606,18607,18567</quad4>
			<tri3 id="226">18031,18047,18048</tri3>
			<quad4 id="227">18047,18087,18088,18048</quad4>
			<quad4 id="228">18087,18127,18128,18088</quad4>
			<quad4 id="229">18127,18167,18168,18128</quad4>
			<quad4 id="230">18167,18207,18208,18168</quad4>
			<quad4 id="231">18207,18247,18248,18208</quad4>
			<quad4 id="232">18247,18287,18288,18248</quad4>
			<quad4 id="233">18287,18327,18328,18288</quad4>
			<quad4 id="234">18327,18367,18368,18328</quad4>
			<quad4 id="235">18367,18407,18408,18368</quad4>
			<quad4 id="236">18407,18447,18448,18408</quad4>
			<quad4 id="237">18447,18487,18488,18448</quad4>
			<quad4 id="238">18487,18527,18528,18488</quad4>
			<quad4 id="239">18527,18567,18568,18528</quad4>
			<quad4 id="240">18567,18607,18608,18568</quad4>
			<tri3 id="241">18031,18048,18049</tri3>
			<quad4 id="242">18048,18088,18089,18049</quad4>
			<quad4 id="243">18088,18128,18129,18089</quad4>
			<quad4 id="244">18128,18168,18169,18129</quad4>
			<quad4 id="245">18168,18208,18209,18169</quad4>
			<quad4 id="246">18208,18248,18249,18209</quad4>
			<quad4 id="247">18248,18288,18289,18249</quad4>
			<quad4 id="248">18288,18328,18329,18289</quad4>
			<quad4 id="249">18328,18368,18369,18329</quad4>
			<quad4 id="250">18368,18408,18409,18369</quad4>
			<quad4 id="251">18408,18448,18449,18409</quad4>
			<quad4 id="252">18448,18488,18489,18449</quad4>
			<quad4 id="253">18488,18528,18529,18489</quad4>
			<quad4 id="254">18528,18568,18569,18529</quad4>
			<quad4 id="255">18568,18608,18609,18569</quad4>
			<tri3 id="256">18031,18049,18050</tri3>
			<quad4 id="257">18049,18089,18090,18050</quad4>
			<quad4 id="258">18089,18129,18130,18090</quad4>
			<quad4 id="259">18129,18169,18170,18130</quad4>
			<quad4 id="260">18169,18209,18210,18170</quad4>
			<quad4 id="261">18209,18249,18250,18210</quad4>
			<quad4 id="262">18249,18289,18290,18250</quad4>
			<quad4 id="263">18289,18329,18330,18290</quad4>
			<quad4 id="264">18329,18369,18370,18330</quad4>
			<quad4 id="265">18369,18409,18410,18370</quad4>
			<quad4 id="266">18409,18449,18450,18410</quad4>
			<quad4 id="267">18449,18489,18490,18450</quad4>
			<quad4 id="268">18489,18529,18530,18490</quad4>
			<quad4 id="269">18529,18569,18570,18530</quad4>
			<quad4 id="270">18569,18609,18610,18570</quad4>
			<tri3 id="271">18031,18050,18051</tri3>
			<quad4 id="272">18050,18090,18091,18051</quad4>
			<quad4 id="273">18090,18130,18131,18091</quad4>
			<quad4 id="274">18130,18170,18171,18131</quad4>
			<quad4 id="275">18170,18210,18211,18171</quad4>
			<quad4 id="276">18210,18250,18251,18211</quad4>
			<quad4 id="277">18250,18290,18291,18251</quad4>
			<quad4 id="278">18290,18330,18331,18291</quad4>
			<quad4 id="279">18330,18370,18371,18331</quad4>
			<quad4 id="280">18370,18410,18411,18371</quad4>
			<quad4 id="281">18410,18450,18451,18411</quad4>
			<quad4 id="282">18450,18490,18491,18451</quad4>
			<quad4 id="283">18490,18530,18531,18491</quad4>
			<quad4 id="284">18530,18570,18571,18531</quad4>
			<quad4 id="285">18570,18610,18611,18571</quad4>
			<tri3 id="286">18031,18051,18052</tri3>
			<quad4 id="287">18051,18091,18092,18052</quad4>
			<quad4 id="288">18091,18131,18132,18092</quad4>
			<quad4 id="289">18131,18171,18172,18132</quad4>
			<quad4 id="290">18171,18211,18212,18172</quad4>
			<quad4 id="291">18211,18251,18252,18212</quad4>
			<quad4 id="292">18251,18291,18292,18252</quad4>
			<quad4 id="293">18291,18331,18332,18292</quad4>
			<quad4 id="294">18331,18371,18372,18332</quad4>
			<quad4 id="295">18371,18411,18412,18372</quad4>
			<quad4 id="296">18411,18451,18452,18412</quad4>
			<quad4 id="297">18451,18491,18492,18452</quad4>
			<quad4 id="298">18491,18531,18532,18492</quad4>
			<quad4 id="299">18531,18571,18572,18532</quad4>
			<quad4 id="300">18571,18611,18612,18572</quad4>
			<tri3 id="301">18031,18052,18053</tri3>
			<quad4 id="302">18052,18092,18093,18053</quad4>
			<quad4 id="303">18092,18132,18133,18093</quad4>
			<quad4 id="304">18132,18172,18173,18133</quad4>
			<quad4 id="305">18172,18212,18213,18173</quad4>
			<quad4 id="306">18212,18252,18253,18213</quad4>
			<quad4 id="307">18252,18292,18293,18253</quad4>
			<quad4 id="308">18292,18332,18333,18293</quad4>
			<quad4 id="309">18332,18372,18373,18333</quad4>
			<quad4 id="310">18372,18412,18413,18373</quad4>
			<quad4 id="311">18412,18452,18453,18413</quad4>
			<quad4 id="312">18452,18492,18493,18453</quad4>
			<quad4 id="313">18492,18532,18533,18493</quad4>
			<quad4 id="314">18532,18572,18573,18533</quad4>
			<quad4 id="315">18572,18612,18613,18573</quad4>
			<tri3 id="316">18031,18053,18054</tri3>
			<quad4 id="317">18053,18093,18094,18054</quad4>
			<quad4 id="318">18093,18133,18134,18094</quad4>
			<quad4 id="319">18133,18173,18174,18134</quad4>
			<quad4 id="320">18173,18213,18214,18174</quad4>
			<quad4 id="321">18213,18253,18254,18214</quad4>
			<quad4 id="322">18253,18293,18294,18254</quad4>
			<quad4 id="323">18293,18333,18334,18294</quad4>
			<quad4 id="324">18333,18373,18374,18334</quad4>
			<quad4 id="325">18373,18413,18414,18374</quad4>
			<quad4 id="326">18413,18453,18454,18414</quad4>
			<quad4 id="327">18453,18493,18494,18454</quad4>
			<quad4 id="328">18493,18533,18534,18494</quad4>
			<quad4 id="329">18533,18573,18574,18534</quad4>
			<quad4 id="330">18573,18613,18614,18574</quad4>
			<tri3 id="331">18031,18054,18055</tri3>
			<quad4 id="332">18054,18094,18095,18055</quad4>
			<quad4 id="333">18094,18134,18135,18095</quad4>
			<quad4 id="334">18134,18174,18175,18135</quad4>
			<quad4 id="335">18174,18214,18215,18175</quad4>
			<quad4 id="336">18214,18254,18255,18215</quad4>
			<quad4 id="337">18254,18294,18295,18255</quad4>
			<quad4 id="338">18294,18334,18335,18295</quad4>
			<quad4 id="339">18334,18374,18375,18335</quad4>
			<quad4 id="340">18374,18414,18415,18375</quad4>
			<quad4 id="341">18414,18454,18455,18415</quad4>
			<quad4 id="342">18454,18494,18495,18455</quad4>
			<quad4 id="343">18494,18534,18535,18495</quad4>
			<quad4 id="344">18534,18574,18575,18535</quad4>
			<quad4 id="345">18574,18614,18615,18575</quad4>
			<tri3 id="346">18031,18055,18056</tri3>
			<quad4 id="347">18055,18095,18096,18056</quad4>
			<quad4 id="348">18095,18135,18136,18096</quad4>
			<quad4 id="349">18135,18175,18176,18136</quad4>
			<quad4 id="350">18175,18215,18216,18176</quad4>
			<quad4 id="351">18215,18255,18256,18216</quad4>
			<quad4 id="352">18255,18295,18296,18256</quad4>
			<quad4 id="353">18295,18335,18336,18296</quad4>
			<quad4 id="354">18335,18375,18376,18336</quad4>
			<quad4 id="355">18375,18415,18416,18376</quad4>
			<quad4 id="356">18415,18455,18456,18416</quad4>
			<quad4 id="357">18455,18495,18496,18456</quad4>
			<quad4 id="358">18495,18535,18536,18496</quad4>
			<quad4 id="359">18535,18575,18576,18536</quad4>
			<quad4 id="360">18575,18615,18616,18576</quad4>
			<tri3 id="361">18031,18056,18057</tri3>
			<quad4 id="362">18056,18096,18097,18057</quad4>
			<quad4 id="363">18096,18136,18137,18097</quad4>
			<quad4 id="364">18136,18176,18177,18137</quad4>
			<quad4 id="365">18176,18216,18217,18177</quad4>
			<quad4 id="366">18216,18256,18257,18217</quad4>
			<quad4 id="367">18256,18296,18297,18257</quad4>
			<quad4 id="368">18296,18336,18337,18297</quad4>
			<quad4 id="369">18336,18376,18377,18337</quad4>
			<quad4 id="370">18376,18416,18417,18377</quad4>
			<quad4 id="371">18416,18456,18457,18417</quad4>
			<quad4 id="372">18456,18496,18497,18457</quad4>
			<quad4 id="373">18496,18536,18537,18497</quad4>
			<quad4 id="374">18536,18576,18577,18537</quad4>
			<quad4 id="375">18576,18616,18617,18577</quad4>
			<tri3 id="376">18031,18057,18058</tri3>
			<quad4 id="377">18057,18097,18098,18058</quad4>
			<quad4 id="378">18097,18137,18138,18098</quad4>
			<quad4 id="379">18137,18177,18178,18138</quad4>
			<quad4 id="380">18177,18217,18218,18178</quad4>
			<quad4 id="381">18217,18257,18258,18218</quad4>
			<quad4 id="382">18257,18297,18298,18258</quad4>
			<quad4 id="383">18297,18337,18338,18298</quad4>
			<quad4 id="384">18337,18377,18378,18338</quad4>
			<quad4 id="385">18377,18417,18418,18378</quad4>
			<quad4 id="386">18417,18457,18458,18418</quad4>
			<quad4 id="387">18457,18497,18498,18458</quad4>
			<quad4 id="388">18497,18537,18538,18498</quad4>
			<quad4 id="389">18537,18577,18578,18538</quad4>
			<quad4 id="390">18577,18617,18618,18578</quad4>
			<tri3 id="391">18031,18058,18059</tri3>
			<quad4 id="392">18058,18098,18099,18059</quad4>
			<quad4 id="393">18098,18138,18139,18099</quad4>
			<quad4 id="394">18138,18178,18179,18139</quad4>
			<quad4 id="395">18178,18218,18219,18179</quad4>
			<quad4 id="396">18218,18258,18259,18219</quad4>
			<quad4 id="397">18258,18298,18299,18259</quad4>
			<quad4 id="398">18298,18338,18339,18299</quad4>
			<quad4 id="399">18338,18378,18379,18339</quad4>
			<quad4 id="400">18378,18418,18419,18379</quad4>
			<quad4 id="401">18418,18458,18459,18419</quad4>
			<quad4 id="402">18458,18498,18499,18459</quad4>
			<quad4 id="403">18498,18538,18539,18499</quad4>
			<quad4 id="404">18538,18578,18579,18539</quad4>
			<quad4 id="405">18578,18618,18619,18579</quad4>
			<tri3 id="406">18031,18059,18060</tri3>
			<quad4 id="407">18059,18099,18100,18060</quad4>
			<quad4 id="408">18099,18139,18140,18100</quad4>
			<quad4 id="409">18139,18179,18180,18140</quad4>
			<quad4 id="410">18179,18219,18220,18180</quad4>
			<quad4 id="411">18219,18259,18260,18220</quad4>
			<quad4 id="412">18259,18299,18300,18260</quad4>
			<quad4 id="413">18299,18339,18340,18300</quad4>
			<quad4 id="414">18339,18379,18380,18340</quad4>
			<quad4 id="415">18379,18419,18420,18380</quad4>
			<quad4 id="416">18419,18459,18460,18420</quad4>
			<quad4 id="417">18459,18499,18500,18460</quad4>
			<quad4 id="418">18499,18539,18540,18500</quad4>
			<quad4 id="419">18539,18579,18580,18540</quad4>
			<quad4 id="420">18579,18619,18620,18580</quad4>
			<tri3 id="421">18031,18060,18061</tri3>
			<quad4 id="422">18060,18100,18101,18061</quad4>
			<quad4 id="423">18100,18140,18141,18101</quad4>
			<quad4 id="424">18140,18180,18181,18141</quad4>
			<quad4 id="425">18180,18220,18221,18181</quad4>
			<quad4 id="426">18220,18260,18261,18221</quad4>
			<quad4 id="427">18260,18300,18301,18261</quad4>
			<quad4 id="428">18300,18340,18341,18301</quad4>
			<quad4 id="429">18340,18380,18381,18341</quad4>
			<quad4 id="430">18380,18420,18421,18381</quad4>
			<quad4 id="431">18420,18460,18461,18421</quad4>
			<quad4 id="432">18460,18500,18501,18461</quad4>
			<quad4 id="433">18500,18540,18541,18501</quad4>
			<quad4 id="434">18540,18580,18581,18541</quad4>
			<quad4 id="435">18580,18620,18621,18581</quad4>
			<tri3 id="436">18031,18061,18062</tri3>
			<quad4 id="437">18061,18101,18102,18062</quad4>
			<quad4 id="438">18101,18141,18142,18102</quad4>
			<quad4 id="439">18141,18181,18182,18142</quad4>
			<quad4 id="440">18181,18221,18222,18182</quad4>
			<quad4 id="441">18221,18261,18262,18222</quad4>
			<quad4 id="442">18261,18301,18302,18262</quad4>
			<quad4 id="443">18301,18341,18342,18302</quad4>
			<quad4 id="444">18341,18381,18382,18342</quad4>
			<quad4 id="445">18381,18421,18422,18382</quad4>
			<quad4 id="446">18421,18461,18462,18422</quad4>
			<quad4 id="447">18461,18501,18502,18462</quad4>
			<quad4 id="448">18501,18541,18542,18502</quad4>
			<quad4 id="449">18541,18581,18582,18542</quad4>
			<quad4 id="450">18581,18621,18622,18582</quad4>
			<tri3 id="451">18031,18062,18063</tri3>
			<quad4 id="452">18062,18102,18103,18063</quad4>
			<quad4 id="453">18102,18142,18143,18103</quad4>
			<quad4 id="454">18142,18182,18183,18143</quad4>
			<quad4 id="455">18182,18222,18223,18183</quad4>
			<quad4 id="456">18222,18262,18263,18223</quad4>
			<quad4 id="457">18262,18302,18303,18263</quad4>
			<quad4 id="458">18302,18342,18343,18303</quad4>
			<quad4 id="459">18342,18382,18383,18343</quad4>
			<quad4 id="460">18382,18422,18423,18383</quad4>
			<quad4 id="461">18422,18462,18463,18423</quad4>
			<quad4 id="462">18462,18502,18503,18463</quad4>
			<quad4 id="463">18502,18542,18543,18503</quad4>
			<quad4 id="464">18542,18582,18583,18543</quad4>
			<quad4 id="465">18582,18622,18623,18583</quad4>
			<tri3 id="466">18031,18063,18064</tri3>
			<quad4 id="467">18063,18103,18104,18064</quad4>
			<quad4 id="468">18103,18143,18144,18104</quad4>
			<quad4 id="469">18143,18183,18184,18144</quad4>
			<quad4 id="470">18183,18223,18224,18184</quad4>
			<quad4 id="471">18223,18263,18264,18224</quad4>
			<quad4 id="472">18263,18303,18304,18264</quad4>
			<quad4 id="473">18303,18343,18344,18304</quad4>
			<quad4 id="474">18343,18383,18384,18344</quad4>
			<quad4 id="475">18383,18423,18424,18384</quad4>
			<quad4 id="476">18423,18463,18464,18424</quad4>
			<quad4 id="477">18463,18503,18504,18464</quad4>
			<quad4 id="478">18503,18543,18544,18504</quad4>
			<quad4 id="479">18543,18583,18584,18544</quad4>
			<quad4 id="480">18583,18623,18624,18584</quad4>
			<tri3 id="481">18031,18064,18065</tri3>
			<quad4 id="482">18064,18104,18105,18065</quad4>
			<quad4 id="483">18104,18144,18145,18105</quad4>
			<quad4 id="484">18144,18184,18185,18145</quad4>
			<quad4 id="485">18184,18224,18225,18185</quad4>
			<quad4 id="486">18224,18264,18265,18225</quad4>
			<quad4 id="487">18264,18304,18305,18265</quad4>
			<quad4 id="488">18304,18344,18345,18305</quad4>
			<quad4 id="489">18344,18384,18385,18345</quad4>
			<quad4 id="490">18384,18424,18425,18385</quad4>
			<quad4 id="491">18424,18464,18465,18425</quad4>
			<quad4 id="492">18464,18504,18505,18465</quad4>
			<quad4 id="493">18504,18544,18545,18505</quad4>
			<quad4 id="494">18544,18584,18585,18545</quad4>
			<quad4 id="495">18584,18624,18625,18585</quad4>
			<tri3 id="496">18031,18065,18066</tri3>
			<quad4 id="497">18065,18105,18106,18066</quad4>
			<quad4 id="498">18105,18145,18146,18106</quad4>
			<quad4 id="499">18145,18185,18186,18146</quad4>
			<quad4 id="500">18185,18225,18226,18186</quad4>
			<quad4 id="501">18225,18265,18266,18226</quad4>
			<quad4 id="502">18265,18305,18306,18266</quad4>
			<quad4 id="503">18305,18345,18346,18306</quad4>
			<quad4 id="504">18345,18385,18386,18346</quad4>
			<quad4 id="505">18385,18425,18426,18386</quad4>
			<quad4 id="506">18425,18465,18466,18426</quad4>
			<quad4 id="507">18465,18505,18506,18466</quad4>
			<quad4 id="508">18505,18545,18546,18506</quad4>
			<quad4 id="509">18545,18585,18586,18546</quad4>
			<quad4 id="510">18585,18625,18626,18586</quad4>
			<tri3 id="511">18031,18066,18067</tri3>
			<quad4 id="512">18066,18106,18107,18067</quad4>
			<quad4 id="513">18106,18146,18147,18107</quad4>
			<quad4 id="514">18146,18186,18187,18147</quad4>
			<quad4 id="515">18186,18226,18227,18187</quad4>
			<quad4 id="516">18226,18266,18267,18227</quad4>
			<quad4 id="517">18266,18306,18307,18267</quad4>
			<quad4 id="518">18306,18346,18347,18307</quad4>
			<quad4 id="519">18346,18386,18387,18347</quad4>
			<quad4 id="520">18386,18426,18427,18387</quad4>
			<quad4 id="521">18426,18466,18467,18427</quad4>
			<quad4 id="522">18466,18506,18507,18467</quad4>
			<quad4 id="523">18506,18546,18547,18507</quad4>
			<quad4 id="524">18546,18586,18587,18547</quad4>
			<quad4 id="525">18586,18626,18627,18587</quad4>
			<tri3 id="526">18031,18067,18068</tri3>
			<quad4 id="527">18067,18107,18108,18068</quad4>
			<quad4 id="528">18107,18147,18148,18108</quad4>
			<quad4 id="529">18147,18187,18188,18148</quad4>
			<quad4 id="530">18187,18227,18228,18188</quad4>
			<quad4 id="531">18227,18267,18268,18228</quad4>
			<quad4 id="532">18267,18307,18308,18268</quad4>
			<quad4 id="533">18307,18347,18348,18308</quad4>
			<quad4 id="534">18347,18387,18388,18348</quad4>
			<quad4 id="535">18387,18427,18428,18388</quad4>
			<quad4 id="536">18427,18467,18468,18428</quad4>
			<quad4 id="537">18467,18507,18508,18468</quad4>
			<quad4 id="538">18507,18547,18548,18508</quad4>
			<quad4 id="539">18547,18587,18588,18548</quad4>
			<quad4 id="540">18587,18627,18628,18588</quad4>
			<tri3 id="541">18031,18068,18069</tri3>
			<quad4 id="542">18068,18108,18109,18069</quad4>
			<quad4 id="543">18108,18148,18149,18109</quad4>
			<quad4 id="544">18148,18188,18189,18149</quad4>
			<quad4 id="545">18188,18228,18229,18189</quad4>
			<quad4 id="546">18228,18268,18269,18229</quad4>
			<quad4 id="547">18268,18308,18309,18269</quad4>
			<quad4 id="548">18308,18348,18349,18309</quad4>
			<quad4 id="549">18348,18388,18389,18349</quad4>
			<quad4 id="550">18388,18428,18429,18389</quad4>
			<quad4 id="551">18428,18468,18469,18429</quad4>
			<quad4 id="552">18468,18508,18509,18469</quad4>
			<quad4 id="553">18508,18548,18549,18509</quad4>
			<quad4 id="554">18548,18588,18589,18549</quad4>
			<quad4 id="555">18588,18628,18629,18589</quad4>
			<tri3 id="556">18031,18069,18070</tri3>
			<quad4 id="557">18069,18109,18110,18070</quad4>
			<quad4 id="558">18109,18149,18150,18110</quad4>
			<quad4 id="559">18149,18189,18190,18150</quad4>
			<quad4 id="560">18189,18229,18230,18190</quad4>
			<quad4 id="561">18229,18269,18270,18230</quad4>
			<quad4 id="562">18269,18309,18310,18270</quad4>
			<quad4 id="563">18309,18349,18350,18310</quad4>
			<quad4 id="564">18349,18389,18390,18350</quad4>
			<quad4 id="565">18389,18429,18430,18390</quad4>
			<quad4 id="566">18429,18469,18470,18430</quad4>
			<quad4 id="567">18469,18509,18510,18470</quad4>
			<quad4 id="568">18509,18549,18550,18510</quad4>
			<quad4 id="569">18549,18589,18590,18550</quad4>
			<quad4 id="570">18589,18629,18630,18590</quad4>
			<tri3 id="571">18031,18070,18071</tri3>
			<quad4 id="572">18070,18110,18111,18071</quad4>
			<quad4 id="573">18110,18150,18151,18111</quad4>
			<quad4 id="574">18150,18190,18191,18151</quad4>
			<quad4 id="575">18190,18230,18231,18191</quad4>
			<quad4 id="576">18230,18270,18271,18231</quad4>
			<quad4 id="577">18270,18310,18311,18271</quad4>
			<quad4 id="578">18310,18350,18351,18311</quad4>
			<quad4 id="579">18350,18390,18391,18351</quad4>
			<quad4 id="580">18390,18430,18431,18391</quad4>
			<quad4 id="581">18430,18470,18471,18431</quad4>
			<quad4 id="582">18470,18510,18511,18471</quad4>
			<quad4 id="583">18510,18550,18551,18511</quad4>
			<quad4 id="584">18550,18590,18591,18551</quad4>
			<quad4 id="585">18590,18630,18631,18591</quad4>
			<tri3 id="586">18031,18071,18032</tri3>
			<quad4 id="587">18071,18111,18072,18032</quad4>
			<quad4 id="588">18111,18151,18112,18072</quad4>
			<quad4 id="589">18151,18191,18152,18112</quad4>
			<quad4 id="590">18191,18231,18192,18152</quad4>
			<quad4 id="591">18231,18271,18232,18192</quad4>
			<quad4 id="592">18271,18311,18272,18232</quad4>
			<quad4 id="593">18311,18351,18312,18272</quad4>
			<quad4 id="594">18351,18391,18352,18312</quad4>
			<quad4 id="595">18391,18431,18392,18352</quad4>
			<quad4 id="596">18431,18471,18432,18392</quad4>
			<quad4 id="597">18471,18511,18472,18432</quad4>
			<quad4 id="598">18511,18551,18512,18472</quad4>
			<quad4 id="599">18551,18591,18552,18512</quad4>
			<quad4 id="600">18591,18631,18592,18552</quad4>
		</Surface>
		<Surface name="FluidNormalVelocity1">
			<tri3 id="1">1,3,2</tri3>
			<quad4 id="2">3,43,42,2</quad4>
			<quad4 id="3">43,83,82,42</quad4>
			<quad4 id="4">83,123,122,82</quad4>
			<quad4 id="5">123,163,162,122</quad4>
			<quad4 id="6">163,203,202,162</quad4>
			<quad4 id="7">203,243,242,202</quad4>
			<quad4 id="8">243,283,282,242</quad4>
			<quad4 id="9">283,323,322,282</quad4>
			<quad4 id="10">323,363,362,322</quad4>
			<quad4 id="11">363,403,402,362</quad4>
			<quad4 id="12">403,443,442,402</quad4>
			<quad4 id="13">443,483,482,442</quad4>
			<quad4 id="14">483,523,522,482</quad4>
			<quad4 id="15">523,563,562,522</quad4>
			<tri3 id="16">1,4,3</tri3>
			<quad4 id="17">4,44,43,3</quad4>
			<quad4 id="18">44,84,83,43</quad4>
			<quad4 id="19">84,124,123,83</quad4>
			<quad4 id="20">124,164,163,123</quad4>
			<quad4 id="21">164,204,203,163</quad4>
			<quad4 id="22">204,244,243,203</quad4>
			<quad4 id="23">244,284,283,243</quad4>
			<quad4 id="24">284,324,323,283</quad4>
			<quad4 id="25">324,364,363,323</quad4>
			<quad4 id="26">364,404,403,363</quad4>
			<quad4 id="27">404,444,443,403</quad4>
			<quad4 id="28">444,484,483,443</quad4>
			<quad4 id="29">484,524,523,483</quad4>
			<quad4 id="30">524,564,563,523</quad4>
			<tri3 id="31">1,5,4</tri3>
			<quad4 id="32">5,45,44,4</quad4>
			<quad4 id="33">45,85,84,44</quad4>
			<quad4 id="34">85,125,124,84</quad4>
			<quad4 id="35">125,165,164,124</quad4>
			<quad4 id="36">165,205,204,164</quad4>
			<quad4 id="37">205,245,244,204</quad4>
			<quad4 id="38">245,285,284,244</quad4>
			<quad4 id="39">285,325,324,284</quad4>
			<quad4 id="40">325,365,364,324</quad4>
			<quad4 id="41">365,405,404,364</quad4>
			<quad4 id="42">405,445,444,404</quad4>
			<quad4 id="43">445,485,484,444</quad4>
			<quad4 id="44">485,525,524,484</quad4>
			<quad4 id="45">525,565,564,524</quad4>
			<tri3 id="46">1,6,5</tri3>
			<quad4 id="47">6,46,45,5</quad4>
			<quad4 id="48">46,86,85,45</quad4>
			<quad4 id="49">86,126,125,85</quad4>
			<quad4 id="50">126,166,165,125</quad4>
			<quad4 id="51">166,206,205,165</quad4>
			<quad4 id="52">206,246,245,205</quad4>
			<quad4 id="53">246,286,285,245</quad4>
			<quad4 id="54">286,326,325,285</quad4>
			<quad4 id="55">326,366,365,325</quad4>
			<quad4 id="56">366,406,405,365</quad4>
			<quad4 id="57">406,446,445,405</quad4>
			<quad4 id="58">446,486,485,445</quad4>
			<quad4 id="59">486,526,525,485</quad4>
			<quad4 id="60">526,566,565,525</quad4>
			<tri3 id="61">1,7,6</tri3>
			<quad4 id="62">7,47,46,6</quad4>
			<quad4 id="63">47,87,86,46</quad4>
			<quad4 id="64">87,127,126,86</quad4>
			<quad4 id="65">127,167,166,126</quad4>
			<quad4 id="66">167,207,206,166</quad4>
			<quad4 id="67">207,247,246,206</quad4>
			<quad4 id="68">247,287,286,246</quad4>
			<quad4 id="69">287,327,326,286</quad4>
			<quad4 id="70">327,367,366,326</quad4>
			<quad4 id="71">367,407,406,366</quad4>
			<quad4 id="72">407,447,446,406</quad4>
			<quad4 id="73">447,487,486,446</quad4>
			<quad4 id="74">487,527,526,486</quad4>
			<quad4 id="75">527,567,566,526</quad4>
			<tri3 id="76">1,8,7</tri3>
			<quad4 id="77">8,48,47,7</quad4>
			<quad4 id="78">48,88,87,47</quad4>
			<quad4 id="79">88,128,127,87</quad4>
			<quad4 id="80">128,168,167,127</quad4>
			<quad4 id="81">168,208,207,167</quad4>
			<quad4 id="82">208,248,247,207</quad4>
			<quad4 id="83">248,288,287,247</quad4>
			<quad4 id="84">288,328,327,287</quad4>
			<quad4 id="85">328,368,367,327</quad4>
			<quad4 id="86">368,408,407,367</quad4>
			<quad4 id="87">408,448,447,407</quad4>
			<quad4 id="88">448,488,487,447</quad4>
			<quad4 id="89">488,528,527,487</quad4>
			<quad4 id="90">528,568,567,527</quad4>
			<tri3 id="91">1,9,8</tri3>
			<quad4 id="92">9,49,48,8</quad4>
			<quad4 id="93">49,89,88,48</quad4>
			<quad4 id="94">89,129,128,88</quad4>
			<quad4 id="95">129,169,168,128</quad4>
			<quad4 id="96">169,209,208,168</quad4>
			<quad4 id="97">209,249,248,208</quad4>
			<quad4 id="98">249,289,288,248</quad4>
			<quad4 id="99">289,329,328,288</quad4>
			<quad4 id="100">329,369,368,328</quad4>
			<quad4 id="101">369,409,408,368</quad4>
			<quad4 id="102">409,449,448,408</quad4>
			<quad4 id="103">449,489,488,448</quad4>
			<quad4 id="104">489,529,528,488</quad4>
			<quad4 id="105">529,569,568,528</quad4>
			<tri3 id="106">1,10,9</tri3>
			<quad4 id="107">10,50,49,9</quad4>
			<quad4 id="108">50,90,89,49</quad4>
			<quad4 id="109">90,130,129,89</quad4>
			<quad4 id="110">130,170,169,129</quad4>
			<quad4 id="111">170,210,209,169</quad4>
			<quad4 id="112">210,250,249,209</quad4>
			<quad4 id="113">250,290,289,249</quad4>
			<quad4 id="114">290,330,329,289</quad4>
			<quad4 id="115">330,370,369,329</quad4>
			<quad4 id="116">370,410,409,369</quad4>
			<quad4 id="117">410,450,449,409</quad4>
			<quad4 id="118">450,490,489,449</quad4>
			<quad4 id="119">490,530,529,489</quad4>
			<quad4 id="120">530,570,569,529</quad4>
			<tri3 id="121">1,11,10</tri3>
			<quad4 id="122">11,51,50,10</quad4>
			<quad4 id="123">51,91,90,50</quad4>
			<quad4 id="124">91,131,130,90</quad4>
			<quad4 id="125">131,171,170,130</quad4>
			<quad4 id="126">171,211,210,170</quad4>
			<quad4 id="127">211,251,250,210</quad4>
			<quad4 id="128">251,291,290,250</quad4>
			<quad4 id="129">291,331,330,290</quad4>
			<quad4 id="130">331,371,370,330</quad4>
			<quad4 id="131">371,411,410,370</quad4>
			<quad4 id="132">411,451,450,410</quad4>
			<quad4 id="133">451,491,490,450</quad4>
			<quad4 id="134">491,531,530,490</quad4>
			<quad4 id="135">531,571,570,530</quad4>
			<tri3 id="136">1,12,11</tri3>
			<quad4 id="137">12,52,51,11</quad4>
			<quad4 id="138">52,92,91,51</quad4>
			<quad4 id="139">92,132,131,91</quad4>
			<quad4 id="140">132,172,171,131</quad4>
			<quad4 id="141">172,212,211,171</quad4>
			<quad4 id="142">212,252,251,211</quad4>
			<quad4 id="143">252,292,291,251</quad4>
			<quad4 id="144">292,332,331,291</quad4>
			<quad4 id="145">332,372,371,331</quad4>
			<quad4 id="146">372,412,411,371</quad4>
			<quad4 id="147">412,452,451,411</quad4>
			<quad4 id="148">452,492,491,451</quad4>
			<quad4 id="149">492,532,531,491</quad4>
			<quad4 id="150">532,572,571,531</quad4>
			<tri3 id="151">1,13,12</tri3>
			<quad4 id="152">13,53,52,12</quad4>
			<quad4 id="153">53,93,92,52</quad4>
			<quad4 id="154">93,133,132,92</quad4>
			<quad4 id="155">133,173,172,132</quad4>
			<quad4 id="156">173,213,212,172</quad4>
			<quad4 id="157">213,253,252,212</quad4>
			<quad4 id="158">253,293,292,252</quad4>
			<quad4 id="159">293,333,332,292</quad4>
			<quad4 id="160">333,373,372,332</quad4>
			<quad4 id="161">373,413,412,372</quad4>
			<quad4 id="162">413,453,452,412</quad4>
			<quad4 id="163">453,493,492,452</quad4>
			<quad4 id="164">493,533,532,492</quad4>
			<quad4 id="165">533,573,572,532</quad4>
			<tri3 id="166">1,14,13</tri3>
			<quad4 id="167">14,54,53,13</quad4>
			<quad4 id="168">54,94,93,53</quad4>
			<quad4 id="169">94,134,133,93</quad4>
			<quad4 id="170">134,174,173,133</quad4>
			<quad4 id="171">174,214,213,173</quad4>
			<quad4 id="172">214,254,253,213</quad4>
			<quad4 id="173">254,294,293,253</quad4>
			<quad4 id="174">294,334,333,293</quad4>
			<quad4 id="175">334,374,373,333</quad4>
			<quad4 id="176">374,414,413,373</quad4>
			<quad4 id="177">414,454,453,413</quad4>
			<quad4 id="178">454,494,493,453</quad4>
			<quad4 id="179">494,534,533,493</quad4>
			<quad4 id="180">534,574,573,533</quad4>
			<tri3 id="181">1,15,14</tri3>
			<quad4 id="182">15,55,54,14</quad4>
			<quad4 id="183">55,95,94,54</quad4>
			<quad4 id="184">95,135,134,94</quad4>
			<quad4 id="185">135,175,174,134</quad4>
			<quad4 id="186">175,215,214,174</quad4>
			<quad4 id="187">215,255,254,214</quad4>
			<quad4 id="188">255,295,294,254</quad4>
			<quad4 id="189">295,335,334,294</quad4>
			<quad4 id="190">335,375,374,334</quad4>
			<quad4 id="191">375,415,414,374</quad4>
			<quad4 id="192">415,455,454,414</quad4>
			<quad4 id="193">455,495,494,454</quad4>
			<quad4 id="194">495,535,534,494</quad4>
			<quad4 id="195">535,575,574,534</quad4>
			<tri3 id="196">1,16,15</tri3>
			<quad4 id="197">16,56,55,15</quad4>
			<quad4 id="198">56,96,95,55</quad4>
			<quad4 id="199">96,136,135,95</quad4>
			<quad4 id="200">136,176,175,135</quad4>
			<quad4 id="201">176,216,215,175</quad4>
			<quad4 id="202">216,256,255,215</quad4>
			<quad4 id="203">256,296,295,255</quad4>
			<quad4 id="204">296,336,335,295</quad4>
			<quad4 id="205">336,376,375,335</quad4>
			<quad4 id="206">376,416,415,375</quad4>
			<quad4 id="207">416,456,455,415</quad4>
			<quad4 id="208">456,496,495,455</quad4>
			<quad4 id="209">496,536,535,495</quad4>
			<quad4 id="210">536,576,575,535</quad4>
			<tri3 id="211">1,17,16</tri3>
			<quad4 id="212">17,57,56,16</quad4>
			<quad4 id="213">57,97,96,56</quad4>
			<quad4 id="214">97,137,136,96</quad4>
			<quad4 id="215">137,177,176,136</quad4>
			<quad4 id="216">177,217,216,176</quad4>
			<quad4 id="217">217,257,256,216</quad4>
			<quad4 id="218">257,297,296,256</quad4>
			<quad4 id="219">297,337,336,296</quad4>
			<quad4 id="220">337,377,376,336</quad4>
			<quad4 id="221">377,417,416,376</quad4>
			<quad4 id="222">417,457,456,416</quad4>
			<quad4 id="223">457,497,496,456</quad4>
			<quad4 id="224">497,537,536,496</quad4>
			<quad4 id="225">537,577,576,536</quad4>
			<tri3 id="226">1,18,17</tri3>
			<quad4 id="227">18,58,57,17</quad4>
			<quad4 id="228">58,98,97,57</quad4>
			<quad4 id="229">98,138,137,97</quad4>
			<quad4 id="230">138,178,177,137</quad4>
			<quad4 id="231">178,218,217,177</quad4>
			<quad4 id="232">218,258,257,217</quad4>
			<quad4 id="233">258,298,297,257</quad4>
			<quad4 id="234">298,338,337,297</quad4>
			<quad4 id="235">338,378,377,337</quad4>
			<quad4 id="236">378,418,417,377</quad4>
			<quad4 id="237">418,458,457,417</quad4>
			<quad4 id="238">458,498,497,457</quad4>
			<quad4 id="239">498,538,537,497</quad4>
			<quad4 id="240">538,578,577,537</quad4>
			<tri3 id="241">1,19,18</tri3>
			<quad4 id="242">19,59,58,18</quad4>
			<quad4 id="243">59,99,98,58</quad4>
			<quad4 id="244">99,139,138,98</quad4>
			<quad4 id="245">139,179,178,138</quad4>
			<quad4 id="246">179,219,218,178</quad4>
			<quad4 id="247">219,259,258,218</quad4>
			<quad4 id="248">259,299,298,258</quad4>
			<quad4 id="249">299,339,338,298</quad4>
			<quad4 id="250">339,379,378,338</quad4>
			<quad4 id="251">379,419,418,378</quad4>
			<quad4 id="252">419,459,458,418</quad4>
			<quad4 id="253">459,499,498,458</quad4>
			<quad4 id="254">499,539,538,498</quad4>
			<quad4 id="255">539,579,578,538</quad4>
			<tri3 id="256">1,20,19</tri3>
			<quad4 id="257">20,60,59,19</quad4>
			<quad4 id="258">60,100,99,59</quad4>
			<quad4 id="259">100,140,139,99</quad4>
			<quad4 id="260">140,180,179,139</quad4>
			<quad4 id="261">180,220,219,179</quad4>
			<quad4 id="262">220,260,259,219</quad4>
			<quad4 id="263">260,300,299,259</quad4>
			<quad4 id="264">300,340,339,299</quad4>
			<quad4 id="265">340,380,379,339</quad4>
			<quad4 id="266">380,420,419,379</quad4>
			<quad4 id="267">420,460,459,419</quad4>
			<quad4 id="268">460,500,499,459</quad4>
			<quad4 id="269">500,540,539,499</quad4>
			<quad4 id="270">540,580,579,539</quad4>
			<tri3 id="271">1,21,20</tri3>
			<quad4 id="272">21,61,60,20</quad4>
			<quad4 id="273">61,101,100,60</quad4>
			<quad4 id="274">101,141,140,100</quad4>
			<quad4 id="275">141,181,180,140</quad4>
			<quad4 id="276">181,221,220,180</quad4>
			<quad4 id="277">221,261,260,220</quad4>
			<quad4 id="278">261,301,300,260</quad4>
			<quad4 id="279">301,341,340,300</quad4>
			<quad4 id="280">341,381,380,340</quad4>
			<quad4 id="281">381,421,420,380</quad4>
			<quad4 id="282">421,461,460,420</quad4>
			<quad4 id="283">461,501,500,460</quad4>
			<quad4 id="284">501,541,540,500</quad4>
			<quad4 id="285">541,581,580,540</quad4>
			<tri3 id="286">1,22,21</tri3>
			<quad4 id="287">22,62,61,21</quad4>
			<quad4 id="288">62,102,101,61</quad4>
			<quad4 id="289">102,142,141,101</quad4>
			<quad4 id="290">142,182,181,141</quad4>
			<quad4 id="291">182,222,221,181</quad4>
			<quad4 id="292">222,262,261,221</quad4>
			<quad4 id="293">262,302,301,261</quad4>
			<quad4 id="294">302,342,341,301</quad4>
			<quad4 id="295">342,382,381,341</quad4>
			<quad4 id="296">382,422,421,381</quad4>
			<quad4 id="297">422,462,461,421</quad4>
			<quad4 id="298">462,502,501,461</quad4>
			<quad4 id="299">502,542,541,501</quad4>
			<quad4 id="300">542,582,581,541</quad4>
			<tri3 id="301">1,23,22</tri3>
			<quad4 id="302">23,63,62,22</quad4>
			<quad4 id="303">63,103,102,62</quad4>
			<quad4 id="304">103,143,142,102</quad4>
			<quad4 id="305">143,183,182,142</quad4>
			<quad4 id="306">183,223,222,182</quad4>
			<quad4 id="307">223,263,262,222</quad4>
			<quad4 id="308">263,303,302,262</quad4>
			<quad4 id="309">303,343,342,302</quad4>
			<quad4 id="310">343,383,382,342</quad4>
			<quad4 id="311">383,423,422,382</quad4>
			<quad4 id="312">423,463,462,422</quad4>
			<quad4 id="313">463,503,502,462</quad4>
			<quad4 id="314">503,543,542,502</quad4>
			<quad4 id="315">543,583,582,542</quad4>
			<tri3 id="316">1,24,23</tri3>
			<quad4 id="317">24,64,63,23</quad4>
			<quad4 id="318">64,104,103,63</quad4>
			<quad4 id="319">104,144,143,103</quad4>
			<quad4 id="320">144,184,183,143</quad4>
			<quad4 id="321">184,224,223,183</quad4>
			<quad4 id="322">224,264,263,223</quad4>
			<quad4 id="323">264,304,303,263</quad4>
			<quad4 id="324">304,344,343,303</quad4>
			<quad4 id="325">344,384,383,343</quad4>
			<quad4 id="326">384,424,423,383</quad4>
			<quad4 id="327">424,464,463,423</quad4>
			<quad4 id="328">464,504,503,463</quad4>
			<quad4 id="329">504,544,543,503</quad4>
			<quad4 id="330">544,584,583,543</quad4>
			<tri3 id="331">1,25,24</tri3>
			<quad4 id="332">25,65,64,24</quad4>
			<quad4 id="333">65,105,104,64</quad4>
			<quad4 id="334">105,145,144,104</quad4>
			<quad4 id="335">145,185,184,144</quad4>
			<quad4 id="336">185,225,224,184</quad4>
			<quad4 id="337">225,265,264,224</quad4>
			<quad4 id="338">265,305,304,264</quad4>
			<quad4 id="339">305,345,344,304</quad4>
			<quad4 id="340">345,385,384,344</quad4>
			<quad4 id="341">385,425,424,384</quad4>
			<quad4 id="342">425,465,464,424</quad4>
			<quad4 id="343">465,505,504,464</quad4>
			<quad4 id="344">505,545,544,504</quad4>
			<quad4 id="345">545,585,584,544</quad4>
			<tri3 id="346">1,26,25</tri3>
			<quad4 id="347">26,66,65,25</quad4>
			<quad4 id="348">66,106,105,65</quad4>
			<quad4 id="349">106,146,145,105</quad4>
			<quad4 id="350">146,186,185,145</quad4>
			<quad4 id="351">186,226,225,185</quad4>
			<quad4 id="352">226,266,265,225</quad4>
			<quad4 id="353">266,306,305,265</quad4>
			<quad4 id="354">306,346,345,305</quad4>
			<quad4 id="355">346,386,385,345</quad4>
			<quad4 id="356">386,426,425,385</quad4>
			<quad4 id="357">426,466,465,425</quad4>
			<quad4 id="358">466,506,505,465</quad4>
			<quad4 id="359">506,546,545,505</quad4>
			<quad4 id="360">546,586,585,545</quad4>
			<tri3 id="361">1,27,26</tri3>
			<quad4 id="362">27,67,66,26</quad4>
			<quad4 id="363">67,107,106,66</quad4>
			<quad4 id="364">107,147,146,106</quad4>
			<quad4 id="365">147,187,186,146</quad4>
			<quad4 id="366">187,227,226,186</quad4>
			<quad4 id="367">227,267,266,226</quad4>
			<quad4 id="368">267,307,306,266</quad4>
			<quad4 id="369">307,347,346,306</quad4>
			<quad4 id="370">347,387,386,346</quad4>
			<quad4 id="371">387,427,426,386</quad4>
			<quad4 id="372">427,467,466,426</quad4>
			<quad4 id="373">467,507,506,466</quad4>
			<quad4 id="374">507,547,546,506</quad4>
			<quad4 id="375">547,587,586,546</quad4>
			<tri3 id="376">1,28,27</tri3>
			<quad4 id="377">28,68,67,27</quad4>
			<quad4 id="378">68,108,107,67</quad4>
			<quad4 id="379">108,148,147,107</quad4>
			<quad4 id="380">148,188,187,147</quad4>
			<quad4 id="381">188,228,227,187</quad4>
			<quad4 id="382">228,268,267,227</quad4>
			<quad4 id="383">268,308,307,267</quad4>
			<quad4 id="384">308,348,347,307</quad4>
			<quad4 id="385">348,388,387,347</quad4>
			<quad4 id="386">388,428,427,387</quad4>
			<quad4 id="387">428,468,467,427</quad4>
			<quad4 id="388">468,508,507,467</quad4>
			<quad4 id="389">508,548,547,507</quad4>
			<quad4 id="390">548,588,587,547</quad4>
			<tri3 id="391">1,29,28</tri3>
			<quad4 id="392">29,69,68,28</quad4>
			<quad4 id="393">69,109,108,68</quad4>
			<quad4 id="394">109,149,148,108</quad4>
			<quad4 id="395">149,189,188,148</quad4>
			<quad4 id="396">189,229,228,188</quad4>
			<quad4 id="397">229,269,268,228</quad4>
			<quad4 id="398">269,309,308,268</quad4>
			<quad4 id="399">309,349,348,308</quad4>
			<quad4 id="400">349,389,388,348</quad4>
			<quad4 id="401">389,429,428,388</quad4>
			<quad4 id="402">429,469,468,428</quad4>
			<quad4 id="403">469,509,508,468</quad4>
			<quad4 id="404">509,549,548,508</quad4>
			<quad4 id="405">549,589,588,548</quad4>
			<tri3 id="406">1,30,29</tri3>
			<quad4 id="407">30,70,69,29</quad4>
			<quad4 id="408">70,110,109,69</quad4>
			<quad4 id="409">110,150,149,109</quad4>
			<quad4 id="410">150,190,189,149</quad4>
			<quad4 id="411">190,230,229,189</quad4>
			<quad4 id="412">230,270,269,229</quad4>
			<quad4 id="413">270,310,309,269</quad4>
			<quad4 id="414">310,350,349,309</quad4>
			<quad4 id="415">350,390,389,349</quad4>
			<quad4 id="416">390,430,429,389</quad4>
			<quad4 id="417">430,470,469,429</quad4>
			<quad4 id="418">470,510,509,469</quad4>
			<quad4 id="419">510,550,549,509</quad4>
			<quad4 id="420">550,590,589,549</quad4>
			<tri3 id="421">1,31,30</tri3>
			<quad4 id="422">31,71,70,30</quad4>
			<quad4 id="423">71,111,110,70</quad4>
			<quad4 id="424">111,151,150,110</quad4>
			<quad4 id="425">151,191,190,150</quad4>
			<quad4 id="426">191,231,230,190</quad4>
			<quad4 id="427">231,271,270,230</quad4>
			<quad4 id="428">271,311,310,270</quad4>
			<quad4 id="429">311,351,350,310</quad4>
			<quad4 id="430">351,391,390,350</quad4>
			<quad4 id="431">391,431,430,390</quad4>
			<quad4 id="432">431,471,470,430</quad4>
			<quad4 id="433">471,511,510,470</quad4>
			<quad4 id="434">511,551,550,510</quad4>
			<quad4 id="435">551,591,590,550</quad4>
			<tri3 id="436">1,32,31</tri3>
			<quad4 id="437">32,72,71,31</quad4>
			<quad4 id="438">72,112,111,71</quad4>
			<quad4 id="439">112,152,151,111</quad4>
			<quad4 id="440">152,192,191,151</quad4>
			<quad4 id="441">192,232,231,191</quad4>
			<quad4 id="442">232,272,271,231</quad4>
			<quad4 id="443">272,312,311,271</quad4>
			<quad4 id="444">312,352,351,311</quad4>
			<quad4 id="445">352,392,391,351</quad4>
			<quad4 id="446">392,432,431,391</quad4>
			<quad4 id="447">432,472,471,431</quad4>
			<quad4 id="448">472,512,511,471</quad4>
			<quad4 id="449">512,552,551,511</quad4>
			<quad4 id="450">552,592,591,551</quad4>
			<tri3 id="451">1,33,32</tri3>
			<quad4 id="452">33,73,72,32</quad4>
			<quad4 id="453">73,113,112,72</quad4>
			<quad4 id="454">113,153,152,112</quad4>
			<quad4 id="455">153,193,192,152</quad4>
			<quad4 id="456">193,233,232,192</quad4>
			<quad4 id="457">233,273,272,232</quad4>
			<quad4 id="458">273,313,312,272</quad4>
			<quad4 id="459">313,353,352,312</quad4>
			<quad4 id="460">353,393,392,352</quad4>
			<quad4 id="461">393,433,432,392</quad4>
			<quad4 id="462">433,473,472,432</quad4>
			<quad4 id="463">473,513,512,472</quad4>
			<quad4 id="464">513,553,552,512</quad4>
			<quad4 id="465">553,593,592,552</quad4>
			<tri3 id="466">1,34,33</tri3>
			<quad4 id="467">34,74,73,33</quad4>
			<quad4 id="468">74,114,113,73</quad4>
			<quad4 id="469">114,154,153,113</quad4>
			<quad4 id="470">154,194,193,153</quad4>
			<quad4 id="471">194,234,233,193</quad4>
			<quad4 id="472">234,274,273,233</quad4>
			<quad4 id="473">274,314,313,273</quad4>
			<quad4 id="474">314,354,353,313</quad4>
			<quad4 id="475">354,394,393,353</quad4>
			<quad4 id="476">394,434,433,393</quad4>
			<quad4 id="477">434,474,473,433</quad4>
			<quad4 id="478">474,514,513,473</quad4>
			<quad4 id="479">514,554,553,513</quad4>
			<quad4 id="480">554,594,593,553</quad4>
			<tri3 id="481">1,35,34</tri3>
			<quad4 id="482">35,75,74,34</quad4>
			<quad4 id="483">75,115,114,74</quad4>
			<quad4 id="484">115,155,154,114</quad4>
			<quad4 id="485">155,195,194,154</quad4>
			<quad4 id="486">195,235,234,194</quad4>
			<quad4 id="487">235,275,274,234</quad4>
			<quad4 id="488">275,315,314,274</quad4>
			<quad4 id="489">315,355,354,314</quad4>
			<quad4 id="490">355,395,394,354</quad4>
			<quad4 id="491">395,435,434,394</quad4>
			<quad4 id="492">435,475,474,434</quad4>
			<quad4 id="493">475,515,514,474</quad4>
			<quad4 id="494">515,555,554,514</quad4>
			<quad4 id="495">555,595,594,554</quad4>
			<tri3 id="496">1,36,35</tri3>
			<quad4 id="497">36,76,75,35</quad4>
			<quad4 id="498">76,116,115,75</quad4>
			<quad4 id="499">116,156,155,115</quad4>
			<quad4 id="500">156,196,195,155</quad4>
			<quad4 id="501">196,236,235,195</quad4>
			<quad4 id="502">236,276,275,235</quad4>
			<quad4 id="503">276,316,315,275</quad4>
			<quad4 id="504">316,356,355,315</quad4>
			<quad4 id="505">356,396,395,355</quad4>
			<quad4 id="506">396,436,435,395</quad4>
			<quad4 id="507">436,476,475,435</quad4>
			<quad4 id="508">476,516,515,475</quad4>
			<quad4 id="509">516,556,555,515</quad4>
			<quad4 id="510">556,596,595,555</quad4>
			<tri3 id="511">1,37,36</tri3>
			<quad4 id="512">37,77,76,36</quad4>
			<quad4 id="513">77,117,116,76</quad4>
			<quad4 id="514">117,157,156,116</quad4>
			<quad4 id="515">157,197,196,156</quad4>
			<quad4 id="516">197,237,236,196</quad4>
			<quad4 id="517">237,277,276,236</quad4>
			<quad4 id="518">277,317,316,276</quad4>
			<quad4 id="519">317,357,356,316</quad4>
			<quad4 id="520">357,397,396,356</quad4>
			<quad4 id="521">397,437,436,396</quad4>
			<quad4 id="522">437,477,476,436</quad4>
			<quad4 id="523">477,517,516,476</quad4>
			<quad4 id="524">517,557,556,516</quad4>
			<quad4 id="525">557,597,596,556</quad4>
			<tri3 id="526">1,38,37</tri3>
			<quad4 id="527">38,78,77,37</quad4>
			<quad4 id="528">78,118,117,77</quad4>
			<quad4 id="529">118,158,157,117</quad4>
			<quad4 id="530">158,198,197,157</quad4>
			<quad4 id="531">198,238,237,197</quad4>
			<quad4 id="532">238,278,277,237</quad4>
			<quad4 id="533">278,318,317,277</quad4>
			<quad4 id="534">318,358,357,317</quad4>
			<quad4 id="535">358,398,397,357</quad4>
			<quad4 id="536">398,438,437,397</quad4>
			<quad4 id="537">438,478,477,437</quad4>
			<quad4 id="538">478,518,517,477</quad4>
			<quad4 id="539">518,558,557,517</quad4>
			<quad4 id="540">558,598,597,557</quad4>
			<tri3 id="541">1,39,38</tri3>
			<quad4 id="542">39,79,78,38</quad4>
			<quad4 id="543">79,119,118,78</quad4>
			<quad4 id="544">119,159,158,118</quad4>
			<quad4 id="545">159,199,198,158</quad4>
			<quad4 id="546">199,239,238,198</quad4>
			<quad4 id="547">239,279,278,238</quad4>
			<quad4 id="548">279,319,318,278</quad4>
			<quad4 id="549">319,359,358,318</quad4>
			<quad4 id="550">359,399,398,358</quad4>
			<quad4 id="551">399,439,438,398</quad4>
			<quad4 id="552">439,479,478,438</quad4>
			<quad4 id="553">479,519,518,478</quad4>
			<quad4 id="554">519,559,558,518</quad4>
			<quad4 id="555">559,599,598,558</quad4>
			<tri3 id="556">1,40,39</tri3>
			<quad4 id="557">40,80,79,39</quad4>
			<quad4 id="558">80,120,119,79</quad4>
			<quad4 id="559">120,160,159,119</quad4>
			<quad4 id="560">160,200,199,159</quad4>
			<quad4 id="561">200,240,239,199</quad4>
			<quad4 id="562">240,280,279,239</quad4>
			<quad4 id="563">280,320,319,279</quad4>
			<quad4 id="564">320,360,359,319</quad4>
			<quad4 id="565">360,400,399,359</quad4>
			<quad4 id="566">400,440,439,399</quad4>
			<quad4 id="567">440,480,479,439</quad4>
			<quad4 id="568">480,520,519,479</quad4>
			<quad4 id="569">520,560,559,519</quad4>
			<quad4 id="570">560,600,599,559</quad4>
			<tri3 id="571">1,41,40</tri3>
			<quad4 id="572">41,81,80,40</quad4>
			<quad4 id="573">81,121,120,80</quad4>
			<quad4 id="574">121,161,160,120</quad4>
			<quad4 id="575">161,201,200,160</quad4>
			<quad4 id="576">201,241,240,200</quad4>
			<quad4 id="577">241,281,280,240</quad4>
			<quad4 id="578">281,321,320,280</quad4>
			<quad4 id="579">321,361,360,320</quad4>
			<quad4 id="580">361,401,400,360</quad4>
			<quad4 id="581">401,441,440,400</quad4>
			<quad4 id="582">441,481,480,440</quad4>
			<quad4 id="583">481,521,520,480</quad4>
			<quad4 id="584">521,561,560,520</quad4>
			<quad4 id="585">561,601,600,560</quad4>
			<tri3 id="586">1,2,41</tri3>
			<quad4 id="587">2,42,81,41</quad4>
			<quad4 id="588">42,82,121,81</quad4>
			<quad4 id="589">82,122,161,121</quad4>
			<quad4 id="590">122,162,201,161</quad4>
			<quad4 id="591">162,202,241,201</quad4>
			<quad4 id="592">202,242,281,241</quad4>
			<quad4 id="593">242,282,321,281</quad4>
			<quad4 id="594">282,322,361,321</quad4>
			<quad4 id="595">322,362,401,361</quad4>
			<quad4 id="596">362,402,441,401</quad4>
			<quad4 id="597">402,442,481,441</quad4>
			<quad4 id="598">442,482,521,481</quad4>
			<quad4 id="599">482,522,561,521</quad4>
			<quad4 id="600">522,562,601,561</quad4>
		</Surface>
	</Mesh>
	<MeshDomains>
		<SolidDomain name="Part1" mat="Material1" />
		<SolidDomain name="Part1__2" mat="Material1" />
	</MeshDomains>
	<Boundary>
		<bc name="ZeroFluidVelocity1" node_set="@surface:ZeroFluidVelocity1" type="zero fluid velocity">
			<wx_dof>1</wx_dof>
			<wy_dof>1</wy_dof>
			<wz_dof>1</wz_dof>
		</bc>
		<bc name="ZeroFluidDilatation2" node_set="@surface:ZeroFluidDilatation2" type="zero fluid dilatation" />
		<bc name="ZeroFluidDilatation3" node_set="@edge:ZeroFluidDilatation3" type="zero fluid dilatation" />
	</Boundary>
	<Loads>
		<surface_load name="FluidNormalVelocity1" surface="FluidNormalVelocity1" type="fluid normal velocity">
			<velocity>-10</velocity>
			<prescribe_nodal_velocities>1</prescribe_nodal_velocities>
			<parabolic>1</parabolic>
			<prescribe_rim_pressure>0</prescribe_rim_pressure>
		</surface_load>
	</Loads>
	<Output>
		<plotfile type="febio">
			<var type="displacement" />
			<var type="fluid pressure" />
			<var type="nodal fluid velocity" />
			<var type="fluid stress" />
			<var type="fluid velocity" />
			<var type="fluid acceleration" />
			<var type="fluid vorticity" />
			<var type="fluid rate of deformation" />
			<var type="fluid dilatation" />
			<var type="fluid volume ratio" />
		</plotfile>
	</Output>
</febio_spec>