*Heading
** Job name: Normal_2_withoutPMLAtie Model name: model1
** Generated by: Abaqus/CAE 2016
*Preprint, echo=NO, model=NO, history=NO, contact=NO
**
** PARTS
**
*Part, name=NewPart
*Node
      1,            11,             2,             3
      2,             4,             5,            16
      3,             7,             8,             9
      4,            10,            11,            12
*Element, type=element
1,    1,    2
1,    3,    4
2,    5,   31
3,   31,   31
3,   31,    3
4,   23,  123
5,  213,  213
5,  231,    3
6,  211,    3
7,  213,  213
7,   11,    3
8,    3,  132
9,   13,   13
9,   13,   13
10,   13,    3
11,  131
*End Part
**
*Part, name=NewPart
*Node
1,            11,             2,             3
2,             4,             5,            16
3,             7,             8,             9
4,            10,            11,            12
*Element, type=element
1,    1,    2,    3
2,    4,    5,   31
3,   31,   31,   31
4,    3,   23,  123
5,  213,  213,  231
6,    3,  211,    3
7,  213,  213,   11
8,    3,    3,  132
9,   13,   13,   13
10,   13,   13,    3
11,  131
*End Part
**
*Part, name=NewPart
*Node
      1,            11,             2,             3
      2,             4,             5,            16
      3,             7,             8,             9
      4,            10,            11,            12
*Element, type=element
1,    1,    2
1,    3,    4
2,    5,   31
3,   31,   31
3,   31,    3
4,   23,  123
5,  213,  213
5,  231,    3
6,  211,    3
7,  213,  213
7,   11,    3
8,    3,  132
9,   13,   13
9,   13,   13
10,   13,    3
11,  131
*End Part
**
*Part, name=NewPart
*Node
1,            11,             2,             3
2,             4,             5,            16
3,             7,             8,             9
4,            10,            11,            12
*Element, type=element
1,    1,    2,    3
2,    4,    5,   31
3,   31,   31,   31
4,    3,   23,  123
5,  213,  213,  231
6,    3,  211,    3
7,  213,  213,   11
8,    3,    3,  132
9,   13,   13,   13
10,   13,   13,    3
11,  131
*End Part
**
*Part, name=NewPart
*Node
      1,            11,             2,             3
      2,             4,             5,            16
      3,             7,             8,             9
      4,            10,            11,            12
*Element, type=element
1,    1,    2
1,    3,    4
2,    5,   31
3,   31,   31
3,   31,    3
4,   23,  123
5,  213,  213
5,  231,    3
6,  211,    3
7,  213,  213
7,   11,    3
8,    3,  132
9,   13,   13
9,   13,   13
10,   13,    3
11,  131
*End Part
**
*Part, name=NewPart
*Node
1,            11,             2,             3
2,             4,             5,            16
3,             7,             8,             9
4,            10,            11,            12
*Element, type=element
1,    1,    2,    3
2,    4,    5,   31
3,   31,   31,   31
4,    3,   23,  123
5,  213,  213,  231
6,    3,  211,    3
7,  213,  213,   11
8,    3,    3,  132
9,   13,   13,   13
10,   13,   13,    3
11,  131
*End Part
**
*Part, name=NewPart
*Node
      1,            11,             2,             3
      2,             4,             5,            16
      3,             7,             8,             9
      4,            10,            11,            12
*Element, type=element
1,    1,    2
1,    3,    4
2,    5,   31
3,   31,   31
3,   31,    3
4,   23,  123
5,  213,  213
5,  231,    3
6,  211,    3
7,  213,  213
7,   11,    3
8,    3,  132
9,   13,   13
9,   13,   13
10,   13,    3
11,  131
*End Part
**
*Part, name=NewPart
*Node
1,            11,             2,             3
2,             4,             5,            16
3,             7,             8,             9
4,            10,            11,            12
*Element, type=element
1,    2,    3
4,    5,   31
31,   31,   31
3,   23,  123
213,  213,  231
3,  211,    3
213,  213,   11
3,    3,  132
13,   13,   13
13,   13,    3
131
*End Part
**
*Part, name=NewPart
*Node
      1,            11,             2,             3
      2,             4,             5,            16
      3,             7,             8,             9
      4,            10,            11,            12
*Element, type=element
1,    1,    2
1,    3,    4
2,    5,   31
3,   31,   31
3,   31,    3
4,   23,  123
5,  213,  213
5,  231,    3
6,  211,    3
7,  213,  213
7,   11,    3
8,    3,  132
9,   13,   13
9,   13,   13
10,   13,    3
11,  131
*End Part
**
*Part, name=NewPart
*Node
1,            11,             2,             3
2,             4,             5,            16
3,             7,             8,             9
4,            10,            11,            12
*Element, type=element
1,    1,    2,    3
2,    4,    5,   31
3,   31,   31,   31
4,    3,   23,  123
5,  213,  213,  231
6,    3,  211,    3
7,  213,  213,   11
8,    3,    3,  132
9,   13,   13,   13
10,   13,   13,    3
11,  131
*End Part
**
*Part, name=NewPart
*Node
      1,            11,             2,             3
      2,             4,             5,            16
      3,             7,             8,             9
      4,            10,            11,            12
*Element, type=element
1,    1,    2
1,    3,    4
2,    5,   31
3,   31,   31
3,   31,    3
4,   23,  123
5,  213,  213
5,  231,    3
6,  211,    3
7,  213,  213
7,   11,    3
8,    3,  132
9,   13,   13
9,   13,   13
10,   13,    3
11,  131
*End Part
**
*Part, name=NewPart
*Node
1,            11,             2,             3
2,             4,             5,            16
3,             7,             8,             9
4,            10,            11,            12
*Element, type=element
1,    1,    2,    3
2,    4,    5,   31
3,   31,   31,   31
4,    3,   23,  123
5,  213,  213,  231
6,    3,  211,    3
7,  213,  213,   11
8,    3,    3,  132
9,   13,   13,   13
10,   13,   13,    3
11,  131
*End Part
**
*Part, name=NewPart
*Node
      1,            11,             2,             3
      2,             4,             5,            16
      3,             7,             8,             9
      4,            10,            11,            12
*Element, type=element
1,    1,    2
1,    3,    4
2,    5,   31
3,   31,   31
3,   31,    3
4,   23,  123
5,  213,  213
5,  231,    3
6,  211,    3
7,  213,  213
7,   11,    3
8,    3,  132
9,   13,   13
9,   13,   13
10,   13,    3
11,  131
*End Part
**
*Part, name=NewPart
*Node
1,            11,             2,             3
2,             4,             5,            16
3,             7,             8,             9
4,            10,            11,            12
*Element, type=element
1,    1,    2,    3
2,    4,    5,   31
3,   31,   31,   31
4,    3,   23,  123
5,  213,  213,  231
6,    3,  211,    3
7,  213,  213,   11
8,    3,    3,  132
9,   13,   13,   13
10,   13,   13,    3
11,  131
*End Part
**
*Part, name=NewPart
*Node
      1,            11,             2,             3
      2,             4,             5,            16
      3,             7,             8,             9
      4,            10,            11,            12
*Element, type=element
1,    1,    2
1,    3,    4
2,    5,   31
3,   31,   31
3,   31,    3
4,   23,  123
5,  213,  213
5,  231,    3
6,  211,    3
7,  213,  213
7,   11,    3
8,    3,  132
9,   13,   13
9,   13,   13
10,   13,    3
11,  131
*End Part
**
*Part, name=NewPart
*Node
1,            11,             2,             3
2,             4,             5,            16
3,             7,             8,             9
4,            10,            11,            12
*Element, type=element
1,    2,    3
4,    5
*End Part
**
*Part, name=NewPart
*Node
      1,            11,             2,             3
      2,             4,             5,            16
      3,             7,             8,             9
      4,            10,            11,            12
*Element, type=element
1,    1,    2
1,    3,    4
2,    5,   31
3,   31,   31
3,   31,    3
4,   23,  123
5,  213,  213
5,  231,    3
6,  211,    3
7,  213,  213
7,   11,    3
8,    3,  132
9,   13,   13
9,   13,   13
10,   13,    3
11,  131
*End Part
**
*Part, name=NewPart
*Node
1,            11,             2,             3
2,             4,             5,            16
3,             7,             8,             9
4,            10,            11,            12
*Element, type=element
1,    1,    2,    3
2,    4,    5,   31
3,   31,   31,   31
4,    3,   23,  123
5,  213,  213,  231
6,    3,  211,    3
7,  213,  213,   11
8,    3,    3,  132
9,   13,   13,   13
10,   13,   13,    3
11,  131
*End Part
**
*Part, name=NewPart
*Node
      1,            11,             2,             3
      2,             4,             5,            16
      3,             7,             8,             9
      4,            10,            11,            12
*Element, type=element
1,    1,    2
1,    3,    4
2,    5,   31
3,   31,   31
3,   31,    3
4,   23,  123
5,  213,  213
5,  231,    3
6,  211,    3
7,  213,  213
7,   11,    3
8,    3,  132
9,   13,   13
9,   13,   13
10,   13,    3
11,  131
*End Part
**
*Part, name=NewPart
*Node
1,            11,             2,             3
2,             4,             5,            16
3,             7,             8,             9
4,            10,            11,            12
*Element, type=element
1,    1,    2,    3
2,    4,    5,   31
3,   31,   31,   31
4,    3,   23,  123
5,  213,  213,  231
6,    3,  211,    3
7,  213,  213,   11
8,    3,    3,  132
9,   13,   13,   13
10,   13,   13,    3
11,  131
*End Part
**
*Part, name=NewPart
*Node
      1,            11,             2,             3
      2,             4,             5,            16
      3,             7,             8,             9
      4,            10,            11,            12
*Element, type=element
1,    1,    2
1,    3,    4
2,    5,   31
3,   31,   31
3,   31,    3
4,   23,  123
5,  213,  213
5,  231,    3
6,  211,    3
7,  213,  213
7,   11,    3
8,    3,  132
9,   13,   13
9,   13,   13
10,   13,    3
11,  131
*End Part
**
*Part, name=NewPart
*Node
1,            11,             2,             3
2,             4,             5,            16
3,             7,             8,             9
4,            10,            11,            12
*Element, type=element
1,    1,    2,    3
2,    4,    5,   31
3,   31,   31,   31
4,    3,   23,  123
5,  213,  213,  231
6,    3,  211,    3
7,  213,  213,   11
8,    3,    3,  132
9,   13,   13,   13
10,   13,   13,    3
11,  131
*End Part
**
*Part, name=NewPart
*Node
      1,            11,             2,             3
      2,             4,             5,            16
      3,             7,             8,             9
      4,            10,            11,            12
*Element, type=element
1,    1,    2
1,    3,    4
2,    5,   31
3,   31,   31
3,   31,    3
4,   23,  123
5,  213,  213
5,  231,    3
6,  211,    3
7,  213,  213
7,   11,    3
8,    3,  132
9,   13,   13
9,   13,   13
10,   13,    3
11,  131
*End Part
**
*Part, name=NewPart
*Node
1,            11,             2,             3
2,             4,             5,            16
3,             7,             8,             9
4,            10,            11,            12
*Element, type=element
1,    2,    3
4,    5,   31
31,   31,   31
3,   23,  123
213,  213,  231
3,  211,    3
213,  213,   11
3,    3,  132
13,   13,   13
13,   13,    3
131
*End Part
**
*Part, name=NewPart
*Node
      1,            11,             2,             3
      2,             4,             5,            16
      3,             7,             8,             9
      4,            10,            11,            12
*Element, type=element
1,    1,    2
1,    3,    4
2,    5,   31
3,   31,   31
3,   31,    3
4,   23,  123
5,  213,  213
5,  231,    3
6,  211,    3
7,  213,  213
7,   11,    3
8,    3,  132
9,   13,   13
9,   13,   13
10,   13,    3
11,  131
*End Part
**
*Part, name=NewPart
*Node
1,            11,             2,             3
2,             4,             5,            16
3,             7,             8,             9
4,            10,            11,            12
*Element, type=element
1,    1,    2,    3
2,    4,    5,   31
3,   31,   31,   31
4,    3,   23,  123
5,  213,  213,  231
6,    3,  211,    3
7,  213,  213,   11
8,    3,    3,  132
9,   13,   13,   13
10,   13,   13,    3
11,  131
*End Part
**
*Part, name=NewPart
*Node
      1,            11,             2,             3
      2,             4,             5,            16
      3,             7,             8,             9
      4,            10,            11,            12
*Element, type=element
1,    1,    2
1,    3,    4
2,    5,   31
3,   31,   31
3,   31,    3
4,   23,  123
5,  213,  213
5,  231,    3
6,  211,    3
7,  213,  213
7,   11,    3
8,    3,  132
9,   13,   13
9,   13,   13
10,   13,    3
11,  131
*End Part
**
*Part, name=NewPart
*Node
1,            11,             2,             3
2,             4,             5,            16
3,             7,             8,             9
4,            10,            11,            12
*Element, type=element
1,    1,    2,    3
2,    4,    5,   31
3,   31,   31,   31
4,    3,   23,  123
5,  213,  213,  231
6,    3,  211,    3
7,  213,  213,   11
8,    3,    3,  132
9,   13,   13,   13
10,   13,   13,    3
11,  131
*End Part
**
*Part, name=NewPart
*Node
      1,            11,             2,             3
      2,             4,             5,            16
      3,             7,             8,             9
      4,            10,            11,            12
*Element, type=element
1,    1,    2
1,    3,    4
2,    5,   31
3,   31,   31
3,   31,    3
4,   23,  123
5,  213,  213
5,  231,    3
6,  211,    3
7,  213,  213
7,   11,    3
8,    3,  132
9,   13,   13
9,   13,   13
10,   13,    3
11,  131
*End Part
**
*Part, name=NewPart
*Node
1,            11,             2,             3
2,             4,             5,            16
3,             7,             8,             9
4,            10,            11,            12
*Element, type=element
1,    1,    2,    3
2,    4,    5,   31
3,   31,   31,   31
4,    3,   23,  123
5,  213,  213,  231
6,    3,  211,    3
7,  213,  213,   11
8,    3,    3,  132
9,   13,   13,   13
10,   13,   13,    3
11,  131
*End Part
**
*Part, name=NewPart
*Node
      1,            11,             2,             3
      2,             4,             5,            16
      3,             7,             8,             9
      4,            10,            11,            12
*Element, type=element
1,    1,    2
1,    3,    4
2,    5,   31
3,   31,   31
3,   31,    3
4,   23,  123
5,  213,  213
5,  231,    3
6,  211,    3
7,  213,  213
7,   11,    3
8,    3,  132
9,   13,   13
9,   13,   13
10,   13,    3
11,  131
*End Part
**
*Part, name=NewPart
*Node
1,            11,             2,             3
2,             4,             5,            16
3,             7,             8,             9
4,            10,            11,            12
*Element, type=element
1,    2,    3
4,    5
*End Part
**
*Part, name=NewPart
*Node
      1,            11,             2,             3
      2,             4,             5,            16
      3,             7,             8,             9
      4,            10,            11,            12
*Element, type=element
1,    1,    2
1,    3,    4
2,    5,   31
3,   31,   31
3,   31,    3
4,   23,  123
5,  213,  213
5,  231,    3
6,  211,    3
7,  213,  213
7,   11,    3
8,    3,  132
9,   13,   13
9,   13,   13
10,   13,    3
11,  131
*End Part
**
*Part, name=NewPart
*Node
1,            11,             2,             3
2,             4,             5,            16
3,             7,             8,             9
4,            10,            11,            12
*Element, type=element
1,    1,    2,    3
2,    4,    5,   31
3,   31,   31,   31
4,    3,   23,  123
5,  213,  213,  231
6,    3,  211,    3
7,  213,  213,   11
8,    3,    3,  132
9,   13,   13,   13
10,   13,   13,    3
11,  131
*End Part
**
*Part, name=NewPart
*Node
      1,            11,             2,             3
      2,             4,             5,            16
      3,             7,             8,             9
      4,            10,            11,            12
*Element, type=element
1,    1,    2
1,    3,    4
2,    5,   31
3,   31,   31
3,   31,    3
4,   23,  123
5,  213,  213
5,  231,    3
6,  211,    3
7,  213,  213
7,   11,    3
8,    3,  132
9,   13,   13
9,   13,   13
10,   13,    3
11,  131
*End Part
**
*Part, name=NewPart
*Node
1,            11,             2,             3
2,             4,             5,            16
3,             7,             8,             9
4,            10,            11,            12
*Element, type=element
1,    1,    2,    3
2,    4,    5,   31
3,   31,   31,   31
4,    3,   23,  123
5,  213,  213,  231
6,    3,  211,    3
7,  213,  213,   11
8,    3,    3,  132
9,   13,   13,   13
10,   13,   13,    3
11,  131
*End Part
**
*Part, name=NewPart
*Node
      1,            11,             2,             3
      2,             4,             5,            16
      3,             7,             8,             9
      4,            10,            11,            12
*Element, type=element
1,    1,    2
1,    3,    4
2,    5,   31
3,   31,   31
3,   31,    3
4,   23,  123
5,  213,  213
5,  231,    3
6,  211,    3
7,  213,  213
7,   11,    3
8,    3,  132
9,   13,   13
9,   13,   13
10,   13,    3
11,  131
*End Part
**
*Part, name=NewPart
*Node
1,            11,             2,             3
2,             4,             5,            16
3,             7,             8,             9
4,            10,            11,            12
*Element, type=element
1,    1,    2,    3
2,    4,    5,   31
3,   31,   31,   31
4,    3,   23,  123
5,  213,  213,  231
6,    3,  211,    3
7,  213,  213,   11
8,    3,    3,  132
9,   13,   13,   13
10,   13,   13,    3
11,  131
*End Part
**
*Part, name=NewPart
*Node
      1,            11,             2,             3
      2,             4,             5,            16
      3,             7,             8,             9
      4,            10,            11,            12
*Element, type=element
1,    1,    2
1,    3,    4
2,    5,   31
3,   31,   31
3,   31,    3
4,   23,  123
5,  213,  213
5,  231,    3
6,  211,    3
7,  213,  213
7,   11,    3
8,    3,  132
9,   13,   13
9,   13,   13
10,   13,    3
11,  131
*End Part
**
*Part, name=NewPart
*Node
1,            11,             2,             3
2,             4,             5,            16
3,             7,             8,             9
4,            10,            11,            12
*Element, type=element
1,    2,    3
4,    5,   31
31,   31,   31
3,   23,  123
213,  213,  231
3,  211,    3
213,  213,   11
3,    3,  132
13,   13,   13
13,   13,    3
131
*End Part
**
*Part, name=NewPart
*Node
      1,            11,             2,             3
      2,             4,             5,            16
      3,             7,             8,             9
      4,            10,            11,            12
*Element, type=element
1,    1,    2
1,    3,    4
2,    5,   31
3,   31,   31
3,   31,    3
4,   23,  123
5,  213,  213
5,  231,    3
6,  211,    3
7,  213,  213
7,   11,    3
8,    3,  132
9,   13,   13
9,   13,   13
10,   13,    3
11,  131
*End Part
**
*Part, name=NewPart
*Node
1,            11,             2,             3
2,             4,             5,            16
3,             7,             8,             9
4,            10,            11,            12
*Element, type=element
1,    1,    2,    3
2,    4,    5,   31
3,   31,   31,   31
4,    3,   23,  123
5,  213,  213,  231
6,    3,  211,    3
7,  213,  213,   11
8,    3,    3,  132
9,   13,   13,   13
10,   13,   13,    3
11,  131
*End Part
**
*Part, name=NewPart
*Node
      1,            11,             2,             3
      2,             4,             5,            16
      3,             7,             8,             9
      4,            10,            11,            12
*Element, type=element
1,    1,    2
1,    3,    4
2,    5,   31
3,   31,   31
3,   31,    3
4,   23,  123
5,  213,  213
5,  231,    3
6,  211,    3
7,  213,  213
7,   11,    3
8,    3,  132
9,   13,   13
9,   13,   13
10,   13,    3
11,  131
*End Part
**
*Part, name=NewPart
*Node
1,            11,             2,             3
2,             4,             5,            16
3,             7,             8,             9
4,            10,            11,            12
*Element, type=element
1,    1,    2,    3
2,    4,    5,   31
3,   31,   31,   31
4,    3,   23,  123
5,  213,  213,  231
6,    3,  211,    3
7,  213,  213,   11
8,    3,    3,  132
9,   13,   13,   13
10,   13,   13,    3
11,  131
*End Part
**
*Part, name=NewPart
*Node
      1,            11,             2,             3
      2,             4,             5,            16
      3,             7,             8,             9
      4,            10,            11,            12
*Element, type=element
1,    1,    2
1,    3,    4
2,    5,   31
3,   31,   31
3,   31,    3
4,   23,  123
5,  213,  213
5,  231,    3
6,  211,    3
7,  213,  213
7,   11,    3
8,    3,  132
9,   13,   13
9,   13,   13
10,   13,    3
11,  131
*End Part
**
*Part, name=NewPart
*Node
1,            11,             2,             3
2,             4,             5,            16
3,             7,             8,             9
4,            10,            11,            12
*Element, type=element
1,    1,    2,    3
2,    4,    5,   31
3,   31,   31,   31
4,    3,   23,  123
5,  213,  213,  231
6,    3,  211,    3
7,  213,  213,   11
8,    3,    3,  132
9,   13,   13,   13
10,   13,   13,    3
11,  131
*End Part
**
*Part, name=NewPart
*Node
      1,            11,             2,             3
      2,             4,             5,            16
      3,             7,             8,             9
      4,            10,            11,            12
*Element, type=element
1,    1,    2
1,    3,    4
2,    5,   31
3,   31,   31
3,   31,    3
4,   23,  123
5,  213,  213
5,  231,    3
6,  211,    3
7,  213,  213
7,   11,    3
8,    3,  132
9,   13,   13
9,   13,   13
10,   13,    3
11,  131
*End Part
**
*Part, name=NewPart
*Node
1,            11,             2,             3
2,             4,             5,            16
3,             7,             8,             9
4,            10,            11,            12
*Element, type=element
1,    2,    3
4,    5
*End Part
**
*Part, name=NewPart
*Node
      1,            11,             2,             3
      2,             4,             5,            16
      3,             7,             8,             9
      4,            10,            11,            12
*Element, type=element
1,    1,    2
1,    3,    4
2,    5,   31
3,   31,   31
3,   31,    3
4,   23,  123
5,  213,  213
5,  231,    3
6,  211,    3
7,  213,  213
7,   11,    3
8,    3,  132
9,   13,   13
9,   13,   13
10,   13,    3
11,  131
*End Part
**
*Part, name=NewPart
*Node
1,            11,             2,             3
2,             4,             5,            16
3,             7,             8,             9
4,            10,            11,            12
*Element, type=element
1,    1,    2,    3
2,    4,    5,   31
3,   31,   31,   31
4,    3,   23,  123
5,  213,  213,  231
6,    3,  211,    3
7,  213,  213,   11
8,    3,    3,  132
9,   13,   13,   13
10,   13,   13,    3
11,  131
*End Part
**
*Part, name=NewPart
*Node
      1,            11,             2,             3
      2,             4,             5,            16
      3,             7,             8,             9
      4,            10,            11,            12
*Element, type=element
1,    1,    2
1,    3,    4
2,    5,   31
3,   31,   31
3,   31,    3
4,   23,  123
5,  213,  213
5,  231,    3
6,  211,    3
7,  213,  213
7,   11,    3
8,    3,  132
9,   13,   13
9,   13,   13
10,   13,    3
11,  131
*End Part
**
*Part, name=NewPart
*Node
1,            11,             2,             3
2,             4,             5,            16
3,             7,             8,             9
4,            10,            11,            12
*Element, type=element
1,    1,    2,    3
2,    4,    5,   31
3,   31,   31,   31
4,    3,   23,  123
5,  213,  213,  231
6,    3,  211,    3
7,  213,  213,   11
8,    3,    3,  132
9,   13,   13,   13
10,   13,   13,    3
11,  131
*End Part
**
*Part, name=NewPart
*Node
      1,            11,             2,             3
      2,             4,             5,            16
      3,             7,             8,             9
      4,            10,            11,            12
*Element, type=element
1,    1,    2
1,    3,    4
2,    5,   31
3,   31,   31
3,   31,    3
4,   23,  123
5,  213,  213
5,  231,    3
6,  211,    3
7,  213,  213
7,   11,    3
8,    3,  132
9,   13,   13
9,   13,   13
10,   13,    3
11,  131
*End Part
**
*Part, name=NewPart
*Node
1,            11,             2,             3
2,             4,             5,            16
3,             7,             8,             9
4,            10,            11,            12
*Element, type=element
1,    1,    2,    3
2,    4,    5,   31
3,   31,   31,   31
4,    3,   23,  123
5,  213,  213,  231
6,    3,  211,    3
7,  213,  213,   11
8,    3,    3,  132
9,   13,   13,   13
10,   13,   13,    3
11,  131
*End Part
**
*Part, name=NewPart
*Node
      1,            11,             2,             3
      2,             4,             5,            16
      3,             7,             8,             9
      4,            10,            11,            12
*Element, type=element
1,    1,    2
1,    3,    4
2,    5,   31
3,   31,   31
3,   31,    3
4,   23,  123
5,  213,  213
5,  231,    3
6,  211,    3
7,  213,  213
7,   11,    3
8,    3,  132
9,   13,   13
9,   13,   13
10,   13,    3
11,  131
*End Part
**
*Part, name=NewPart
*Node
1,            11,             2,             3
2,             4,             5,            16
3,             7,             8,             9
4,            10,            11,            12
*Element, type=element
1,    2,    3
4,    5,   31
31,   31,   31
3,   23,  123
213,  213,  231
3,  211,    3
213,  213,   11
3,    3,  132
13,   13,   13
13,   13,    3
131
*End Part
**
*Part, name=NewPart
*Node
      1,            11,             2,             3
      2,             4,             5,            16
      3,             7,             8,             9
      4,            10,            11,            12
*Element, type=element
1,    1,    2
1,    3,    4
2,    5,   31
3,   31,   31
3,   31,    3
4,   23,  123
5,  213,  213
5,  231,    3
6,  211,    3
7,  213,  213
7,   11,    3
8,    3,  132
9,   13,   13
9,   13,   13
10,   13,    3
11,  131
*End Part
**
*Part, name=NewPart
*Node
1,            11,             2,             3
2,             4,             5,            16
3,             7,             8,             9
4,            10,            11,            12
*Element, type=element
1,    1,    2,    3
2,    4,    5,   31
3,   31,   31,   31
4,    3,   23,  123
5,  213,  213,  231
6,    3,  211,    3
7,  213,  213,   11
8,    3,    3,  132
9,   13,   13,   13
10,   13,   13,    3
11,  131
*End Part
**
*Part, name=NewPart
*Node
      1,            11,             2,             3
      2,             4,             5,            16
      3,             7,             8,             9
      4,            10,            11,            12
*Element, type=element
1,    1,    2
1,    3,    4
2,    5,   31
3,   31,   31
3,   31,    3
4,   23,  123
5,  213,  213
5,  231,    3
6,  211,    3
7,  213,  213
7,   11,    3
8,    3,  132
9,   13,   13
9,   13,   13
10,   13,    3
11,  131
*End Part
**
*Part, name=NewPart
*Node
1,            11,             2,             3
2,             4,             5,            16
3,             7,             8,             9
4,            10,            11,            12
*Element, type=element
1,    1,    2,    3
2,    4,    5,   31
3,   31,   31,   31
4,    3,   23,  123
5,  213,  213,  231
6,    3,  211,    3
7,  213,  213,   11
8,    3,    3,  132
9,   13,   13,   13
10,   13,   13,    3
11,  131
*End Part
**
*Part, name=NewPart
*Node
      1,            11,             2,             3
      2,             4,             5,            16
      3,             7,             8,             9
      4,            10,            11,            12
*Element, type=element
1,    1,    2
1,    3,    4
2,    5,   31
3,   31,   31
3,   31,    3
4,   23,  123
5,  213,  213
5,  231,    3
6,  211,    3
7,  213,  213
7,   11,    3
8,    3,  132
9,   13,   13
9,   13,   13
10,   13,    3
11,  131
*End Part
**
*Part, name=NewPart
*Node
1,            11,             2,             3
2,             4,             5,            16
3,             7,             8,             9
4,            10,            11,            12
*Element, type=element
1,    1,    2,    3
2,    4,    5,   31
3,   31,   31,   31
4,    3,   23,  123
5,  213,  213,  231
6,    3,  211,    3
7,  213,  213,   11
8,    3,    3,  132
9,   13,   13,   13
10,   13,   13,    3
11,  131
*End Part
**
*Part, name=NewPart
*Node
      1,            11,             2,             3
      2,             4,             5,            16
      3,             7,             8,             9
      4,            10,            11,            12
*Element, type=element
1,    1,    2
1,    3,    4
2,    5,   31
3,   31,   31
3,   31,    3
4,   23,  123
5,  213,  213
5,  231,    3
6,  211,    3
7,  213,  213
7,   11,    3
8,    3,  132
9,   13,   13
9,   13,   13
10,   13,    3
11,  131
*End Part
**
*Part, name=OPAL325_ATFP
*Node
1,   18.4495735,   8.87388229,  -22.5602055
2,   51.7812004,  -30.5793228,   22.1485519
3,  -25.8520317,   11.9009781,  -22.4409065
4,  -67.3580933,    -29.51054,     22.39851
5,   18.7712936,   8.52146053,  -22.4077053
6,    19.087204,   8.16783428,  -22.2461185
7,   19.3970432,   7.81318045,  -22.0752926
8,   19.7005444,   7.45769215,  -21.8950825
9,   19.9974442,   7.10157537,   -21.705368
10,   20.2874775,   6.74505234,  -21.5060387
11,    20.570385,   6.38835812,  -21.2970142
12,   20.8459148,   6.03174257,   -21.078228
13,   21.1138229,   5.67546558,  -20.8496437
14,   21.3738766,   5.31979895,   -20.611248
15,   21.6258545,   4.96502399,  -20.3630543
16,   21.8695564,   4.61142731,  -20.1051064
17,   22.1047955,   4.25930119,   -19.837471
18,   22.3314075,   3.90894175,  -19.5602493
19,   22.5492516,   3.56064248,  -19.2735615
20,   22.7582111,   3.21469665,   -18.977562
** ... 286 like lines cut
*Element, type=T3D2
1,   1,   5
2,   5,   6
3,   6,   7
4,   7,   8
5,   8,   9
6,   9,  10
7,  10,  11
8,  11,  12
9,  12,  13
10,  13,  14
11,  14,  15
12,  15,  16
13,  16,  17
14,  17,  18
15,  18,  19
16,  19,  20
17,  20,  21
18,  21,  22
19,  22,  23
20,  23,  24
** ... 284 like lines cut
*Nset, nset=_PickedSet999, internal, generate
1,   2,   3,   4,   5,  31,  31,  31,  31,   3,  23, 123, 213, 213, 231,   3
211,   3, 213, 213,  11,   3,   3, 132,  13,  13,  13,  13,  13,   3, 131
*Nset, nset=_PickedSet999, internal, generate
(11, 2, 3), (4, 5, 16), (7, 8, 9), (10, 11, 12)
*Nset, nset=_PickedSet5, internal, generate
1,  306,    1
*Elset, elset=_PickedSet5, internal, generate
1,  304,    1
*Nset, nset=_PickedSet7, internal, generate
1,  306,    1
*Elset, elset=_PickedSet7, internal, generate
1,  304,    1
** Section: AWP_dis
*Shell Section, elset=_PickedSet999,
material=ATFP_HYPER_highdesity
2., 5
** Section: AWP_dis
*Shell Section, elset=_PickedSet999,
material=ATFP_HYPER_highdesity
2., 5
** Section: ATPF-wire
*Solid Section, elset=_PickedSet5, material=ATFP_HYPER
1.,
*Nonstructural Mass, elset=_PickedSet7, units=TOTAL MASS
0.005,
*End Part
**
**
** ASSEMBLY
**
*Assembly, name=Assembly
**
*Instance, name=OPAL325_ATFP-1, part=OPAL325_ATFP
*End Instance
**
*Instance, name=OPAL325_GIfiller-1, part=OPAL325_GIfiller
*End Instance
**
*Instance, name=OPAL325_LA-1, part=OPAL325_LA
*End Instance
**
*Instance, name=OPAL325_ATLA-1, part=OPAL325_ATLA
*End Instance
**
*Instance, name=OPAL325_CL_v6-1, part=OPAL325_CL_v6
*End Instance
**
*Instance, name=OPAL325_Para_v6-1, part=OPAL325_Para_v6
*End Instance
**
*Instance, name=OPAL325_AVW_v6-1, part=OPAL325_AVW_v6
*End Instance
**
*Instance, name=OPAL325_US_v6-1, part=OPAL325_US_v6
*End Instance
**
*Instance, name=OPAL325_PBody-1, part=OPAL325_PBody
*End Instance
**
*Instance, name=OPAL325_PM_mid-1, part=OPAL325_PM_mid
*End Instance
**
**Instance, name=OPAL325_RefPlane_MirrorN_0318_20-1, part=OPAL325_RefPlane_MirrorN_0318_20
**End Instance
**
*Element, type=CONN3D2
1, OPAL325_AVW_v6-1.11, OPAL325_Para_v6-1.8
2, OPAL325_AVW_v6-1.12, OPAL325_Para_v6-1.2
3, OPAL325_AVW_v6-1.14, OPAL325_Para_v6-1.15
4, OPAL325_AVW_v6-1.16, OPAL325_Para_v6-1.17
5, OPAL325_AVW_v6-1.18, OPAL325_Para_v6-1.6
6, OPAL325_AVW_v6-1.20, OPAL325_Para_v6-1.4
7, OPAL325_AVW_v6-1.26, OPAL325_Para_v6-1.5
8, OPAL325_AVW_v6-1.13, OPAL325_Para_v6-1.9
9, OPAL325_AVW_v6-1.15, OPAL325_Para_v6-1.10
10, OPAL325_AVW_v6-1.17, OPAL325_Para_v6-1.11
11, OPAL325_AVW_v6-1.19, OPAL325_Para_v6-1.12
12, OPAL325_AVW_v6-1.21, OPAL325_Para_v6-1.13
*Connector Section, elset=Wire-1-Set-1
Weld,
*Element, type=CONN3D2
13, OPAL325_AVW_v6-1.2, OPAL325_CL_v6-1.1
14, OPAL325_AVW_v6-1.5, OPAL325_CL_v6-1.16
15, OPAL325_US_v6-1.7, OPAL325_AVW_v6-1.1
16, OPAL325_AVW_v6-1.4, OPAL325_CL_v6-1.18
17, OPAL325_US_v6-1.11, OPAL325_AVW_v6-1.3
18, OPAL325_AVW_v6-1.6, OPAL325_US_v6-1.9
19, OPAL325_CL_v6-1.5, OPAL325_AVW_v6-1.12
20, OPAL325_AVW_v6-1.10, OPAL325_CL_v6-1.19
21, OPAL325_CL_v6-1.3, OPAL325_AVW_v6-1.8
22, OPAL325_CL_v6-1.21, OPAL325_AVW_v6-1.6
23, OPAL325_US_v6-1.1, OPAL325_AVW_v6-1.2
24, OPAL325_CL_v6-1.23, OPAL325_AVW_v6-1.3
25, OPAL325_US_v6-1.5, OPAL325_AVW_v6-1.4
26, OPAL325_AVW_v6-1.1, OPAL325_CL_v6-1.8
27, OPAL325_US_v6-1.3, OPAL325_AVW_v6-1.5
28, OPAL325_AVW_v6-1.7, OPAL325_CL_v6-1.10
29, OPAL325_AVW_v6-1.9, OPAL325_CL_v6-1.14
30, OPAL325_AVW_v6-1.11, OPAL325_CL_v6-1.12
*Connector Section, elset=Wire-2-Set-1
Weld,
*Nset, nset=Wire-1-Set-1, instance=OPAL325_AVW_v6-1
11, 12, 13, 14, 15, 16, 17, 18, 19, 20, 21, 26
*Nset, nset=Wire-1-Set-1, instance=OPAL325_Para_v6-1
2,  4,  5,  6,  8,  9, 10, 11, 12, 13, 15, 17
*Elset, elset=Wire-1-Set-1, generate
1,  12,   1
*Nset, nset=Wire-2-Set-1, instance=OPAL325_AVW_v6-1, generate
1,  12,   1
*Nset, nset=Wire-2-Set-1, instance=OPAL325_CL_v6-1
1,  3,  5,  8, 10, 12, 14, 16, 18, 19, 21, 23
*Nset, nset=Wire-2-Set-1, instance=OPAL325_US_v6-1, generate
1,  11,   2
*Elset, elset=Wire-2-Set-1, generate
13,  30,   1
*Nset, nset=_PickedSet487, internal, instance=OPAL325_ATFP-1
2, 4
*Nset, nset=_PickedSet487, internal, instance=OPAL325_ATLA-1
2, 4
*Nset, nset=_PickedSet542, internal, instance=OPAL325_CL_v6-1
2,  4,  6,  7,  9, 11, 13, 15, 17, 20, 22, 24
*Nset, nset=_PickedSet542, internal, instance=OPAL325_US_v6-1, generate
2,  12,   2
*Nset, nset=_PickedSet545, internal, instance=OPAL325_ATFP-1
1, 3
*Nset, nset=_PickedSet545, internal, instance=OPAL325_Para_v6-1
1,  3,  7, 14, 16
*Elset, elset=_PickedSet545, internal, instance=OPAL325_Para_v6-1
43, 308
*Nset, nset=_PickedSet586, internal, instance=OPAL325_ATLA-1, generate
1,  4,  1
*Nset, nset=_PickedSet610, internal, instance=OPAL325_GIfiller-1
3,
*Nset, nset=_PickedSet612, internal, instance=OPAL325_AVW_v6-1
22,
*Nset, nset=_PickedSet614, internal, instance=OPAL325_AVW_v6-1
25,
*Nset, nset=_PickedSet646, internal, instance=OPAL325_ATLA-1
1,    2,    5,    6,    7,    8,    9,   10,   11,   12,   13,   14,   15,   16,   17,   18
19,   20,   21,   22,   23,   24,   25,   26,   27,   28,   29,   30,   31,   32,   33,   34
35,   36,   37,   38,   39,   40,   41,   42,   43,   44,   45,   46,   47,   48,   49,   50
51,   52,   53,   54,   55,   56,   57,   58,   59,   60,   61,   62,   63,   64,   65,   66
67,   68,   69,   70,   71,   72,   73,   74,   75,   76,   77,   78,   79,   80,   81,   82
83,   84,   85,   86,   87,   88,   89,   90,   91,   92,   93,   94,   95,   96,   97,   98
99,  100,  101,  102,  103,  104,  105,  106,  107,  108,  109,  110,  111,  112,  113,  114
115,  116,  117,  118,  119,  120,  121,  122,  123,  124,  125,  126,  127,  128,  129,  130
131,  132,  133,  134,  135,  136,  137,  138,  139,  140,  141,  142,  143,  144,  145,  146
147,  148,  149,  150,  151,  152,  153,  154,  155,  156,  157,  158,  159,  160,  161,  162
163,  164,  165,  166,  167,  168,  169,  170,  171,  172,  173,  174,  175,  176,  177,  178
179,  180,  181,  182,  183,  184,  185,  186,  187,  188,  189,  190,  191,  192,  193,  194
195,  196,  197,  198,  199,  200,  201,  202,  203,  204,  205,  206,  207,  208,  209,  210
211,  212,  213,  214,  215,  216,  217,  218,  219,  220,  221,  222,  223,  224,  225,  226
227,  228,  229,  230,  231,  232,  233,  234,  235,  236,  237,  238,  239,  240,  241,  242
243,  244,  245,  246,  247,  248,  249,  250,  251,  252,  253,  254,  255,  256,  257,  258
259,  260,  261,  262,  263,  264,  265,  266,  267,  268,  269,  270,  271,  272,  273,  274
275,  276,  277,  278,  279,  280,  281,  282,  283,  284,  285,  286,  287,  288,  289,  290
291,  292,  293,  294,  295,  296,  297,  298,  299,  300,  301,  302,  303,  304,  305,  306
307,  308,  309,  310,  311,  312,  313,  314,  315,  316,  317,  318,  319,  320,  321,  322
** ... 67 like lines cut
*Elset, elset=_PickedSet646, internal, instance=OPAL325_ATLA-1, generate
1,  1377,     1
*Nset, nset=_PickedSet661, internal, instance=OPAL325_ATLA-1
3,    4, 1381, 1382, 1383, 1384, 1385, 1386, 1387, 1388, 1389, 1390, 1391, 1392, 1393, 1394
1395, 1396, 1397, 1398, 1399, 1400, 1401, 1402, 1403, 1404, 1405, 1406, 1407, 1408, 1409, 1410
1411, 1412, 1413, 1414, 1415, 1416, 1417, 1418, 1419, 1420, 1421, 1422, 1423, 1424, 1425, 1426
1427, 1428, 1429, 1430, 1431, 1432, 1433, 1434, 1435, 1436, 1437, 1438, 1439, 1440, 1441, 1442
1443, 1444, 1445, 1446, 1447, 1448, 1449, 1450, 1451, 1452, 1453, 1454, 1455, 1456, 1457, 1458
1459, 1460, 1461, 1462, 1463, 1464, 1465, 1466, 1467, 1468, 1469, 1470, 1471, 1472, 1473, 1474
1475, 1476, 1477, 1478, 1479, 1480, 1481, 1482, 1483, 1484, 1485, 1486, 1487, 1488, 1489, 1490
1491, 1492, 1493, 1494, 1495, 1496, 1497, 1498, 1499, 1500, 1501, 1502, 1503, 1504, 1505, 1506
1507, 1508, 1509, 1510, 1511, 1512, 1513, 1514, 1515, 1516, 1517, 1518, 1519, 1520, 1521, 1522
1523, 1524, 1525, 1526, 1527, 1528, 1529, 1530, 1531, 1532, 1533, 1534, 1535, 1536, 1537, 1538
1539, 1540, 1541, 1542, 1543, 1544, 1545, 1546, 1547, 1548, 1549, 1550, 1551, 1552, 1553, 1554
1555, 1556, 1557, 1558, 1559, 1560, 1561, 1562, 1563, 1564, 1565, 1566, 1567, 1568, 1569, 1570
1571, 1572, 1573, 1574, 1575, 1576, 1577, 1578, 1579, 1580, 1581, 1582, 1583, 1584, 1585, 1586
1587, 1588, 1589, 1590, 1591, 1592, 1593, 1594, 1595, 1596, 1597, 1598, 1599, 1600, 1601, 1602
1603, 1604, 1605, 1606, 1607, 1608, 1609, 1610, 1611, 1612, 1613, 1614, 1615, 1616, 1617, 1618
1619, 1620, 1621, 1622, 1623, 1624, 1625, 1626, 1627, 1628, 1629, 1630, 1631, 1632, 1633, 1634
1635, 1636, 1637, 1638, 1639, 1640, 1641, 1642, 1643, 1644, 1645, 1646, 1647, 1648, 1649, 1650
1651, 1652, 1653, 1654, 1655, 1656, 1657, 1658, 1659, 1660, 1661, 1662, 1663, 1664, 1665, 1666
1667, 1668, 1669, 1670, 1671, 1672, 1673, 1674, 1675, 1676, 1677, 1678, 1679, 1680, 1681, 1682
1683, 1684, 1685, 1686, 1687, 1688, 1689, 1690, 1691, 1692, 1693, 1694, 1695, 1696, 1697, 1698
** ... 67 like lines cut
*Elset, elset=_PickedSet661, internal, instance=OPAL325_ATLA-1, generate
1378,  2754,     1
*Nset, nset=_PickedSet671, internal, instance=OPAL325_PM_mid-1, generate
1,  53,   1
*Elset, elset=_PickedSet671, internal, instance=OPAL325_PM_mid-1
14,  15,  40,  49,  53,  54,  56,  59,  60,  63,  64,  65,  66,  67,  68,  76
83,  87,  88,  91,  96,  97,  99, 101, 103, 109, 111, 113, 114, 118, 120, 123
124, 154, 155, 163, 164, 165, 167, 171, 172, 174, 175, 176, 256, 278, 282, 287
320, 321, 322, 323
*Nset, nset=_PickedSet680, internal, instance=OPAL325_PBody-1
20,  21,  22,  23,  24,  25, 140, 141, 142, 143, 144
*Nset, nset=_PickedSet680, internal, instance=OPAL325_PM_mid-1, generate
101,  105,    1
*Elset, elset=_PickedSet680, internal, instance=OPAL325_PBody-1
46,  49,  59,  60,  61,  62,  65, 108, 114, 115
*Elset, elset=_PickedSet680, internal, instance=OPAL325_PM_mid-1
247, 251, 253, 312
*Nset, nset=_PickedSet681, internal, instance=OPAL325_LA-1
3,   4,   8,   9,  52,  53,  54,  55,  56,  57,  58,  59, 101, 102, 103, 104
105, 106
*Elset, elset=_PickedSet681, internal, instance=OPAL325_LA-1
31,  33,  34,  87,  91,  94, 141, 143, 153, 207, 208, 210, 211, 212, 239, 333
*Nset, nset=_PickedSet684, internal, instance=OPAL325_LA-1
12,  13,  14, 220, 221, 222, 223, 224, 225, 226, 227, 228, 229, 230, 231, 232
233, 234, 235, 236, 237, 238, 239, 240, 241, 242, 243, 244, 245, 246, 247, 248
275, 276, 277, 278, 279, 280, 281, 282, 283, 284, 285, 286, 287, 288, 289, 290
291, 292, 293, 294, 295, 296, 297, 298, 299, 300, 301, 302, 303
*Elset, elset=_PickedSet684, internal, instance=OPAL325_LA-1
564,  566,  626,  659,  661,  668,  671,  672,  674,  679,  701,  709,  741,  744,  748,  860
936,  943,  987, 1000, 1014, 1031, 1054, 1067, 1104, 1105, 1114, 1129, 1136, 1142, 1374, 1388
1462, 1501, 1502, 1511, 1558, 1560, 1561, 1562, 1568, 1573, 1590, 1592, 1600, 1607, 1619, 1709
1760, 1862, 1876, 1950, 1952, 1958, 1959, 1961, 1962, 1976, 1979, 1980
*Nset, nset=_PickedSet685, internal, instance=OPAL325_LA-1
2,   6,  10,  11, 151, 152, 153, 154, 155, 156, 157, 158, 159, 160, 161, 265
266, 267, 268, 269, 270, 271, 272, 273, 274
*Elset, elset=_PickedSet685, internal, instance=OPAL325_LA-1
372,  378,  381,  384,  429,  430,  433,  435,  439,  440,  449,  453, 1230, 1235, 1237, 1238
1250, 1251, 1252, 1253, 1254, 1256, 1310
*Nset, nset=_PickedSet709, internal, instance=OPAL325_LA-1
2,   3,   6,   9,  40,  41,  42,  43,  44,  45,  46,  47,  48,  49,  50,  51
107, 108, 109, 110, 111, 112, 113, 114, 115, 116, 117, 118
*Elset, elset=_PickedSet709, internal, instance=OPAL325_LA-1
52,  53,  55,  65,  68,  72,  76,  80,  81,  82,  83,  84, 135, 185, 191, 192
196, 197, 274, 277, 281, 284, 288, 307, 338, 353
*Elset, elset=__PickedSurf544_SPOS, internal, instance=OPAL325_AVW_v6-1, generate
1,  277,    1
*Surface, type=ELEMENT, name=_PickedSurf544, internal
__PickedSurf544_SPOS, SPOS
*Elset, elset=__PickedSurf555_SNEG, internal, instance=OPAL325_AVW_v6-1, generate
1,  277,    1
*Surface, type=ELEMENT, name=_PickedSurf555, internal
__PickedSurf555_SNEG, SNEG
*Elset, elset=__PickedSurf560_SPOS, internal, instance=OPAL325_AVW_v6-1, generate
1,  277,    1
*Surface, type=ELEMENT, name=_PickedSurf560, internal
__PickedSurf560_SPOS, SPOS
*Elset, elset=__PickedSurf568_S3, internal, instance=OPAL325_GIfiller-1
87,   206,   335,   353,   445,   654,   670,   739,   826,   932,  1072,  1214,  1244,  1324,  1512,  1543
1569,  1570,  1581,  1584,  1588,  1594,  1601,  1611,  1626,  1628,  1647,  1660,  1667,  1675,  1722,  1724
1726,  1746,  1771,  1795,  1803,  1811,  1825,  1832,  1847,  1848,  1874,  1879,  1881,  1894,  1897,  1924
1929,  1945,  1947,  1950,  1952,  1955,  1959,  1960,  1974,  1977,  1978,  1984,  1991,  1998,  2001,  2009
2011,  2017,  2037,  2041,  2047,  2049,  2059,  2069,  2092,  2094,  2096,  2108,  2109,  2110,  2116,  2117
2120,  2121,  2129,  2135,  2140,  2143,  2146,  2149,  2151,  2152,  2161,  2165,  2167,  2181,  2185,  2186
2209,  2211,  2212,  2230,  2232,  2239,  2249,  2250,  2264,  2272,  2300,  2306,  2314,  2323,  2326,  2328
2333,  2335,  2336,  2337,  2346,  2351,  2356,  2359,  2361,  2362,  2363,  2365,  2366,  2367,  2373,  2385
2386,  2387,  2388,  2398,  2407,  2410,  2424,  2431,  2432,  2435,  2437,  2446,  2447,  2468,  2472,  2480
2498,  2533,  2536,  2546,  2548,  2557,  2573,  2615,  2616,  2637,  2638,  2640,  2641,  2644,  2648,  2662
2663,  2668,  2672,  2673,  2677,  2855,  2887,  2890,  2916,  2918,  2921,  2931,  2934,  2937,  2971,  2984
3027,  3108,  3109,  3130,  3155,  3166,  3170,  3172,  3237,  3247,  3254,  3256,  3257,  3299,  3300,  3305
3306,  3307,  3314,  3316,  3317,  3330,  3331,  3337,  3368,  3382,  3399,  3402,  3407,  3413,  3425,  3434
3435,  3437,  3438,  3441,  3443,  3446,  3454,  3455,  3458,  3460,  3462,  3465,  3470,  3473,  3476,  3477
3486,  3494,  3496,  3497,  3503,  3507,  3523,  3525,  3527,  3537,  3557,  3558,  3566,  3571,  3585,  3589
3594,  3600,  3602,  3616,  3617,  3624,  3627,  3628,  3630,  3636,  3638,  3640,  3641,  3644,  3650,  3656
3659,  3680,  3683,  3694,  3717,  3719,  3723,  3730,  3852,  3872,  3875,  3959,  3962,  3963,  4008,  4062
4064,  4086,  4100,  4102,  4106,  4159,  4245,  4251,  4255,  4258,  4262,  4263,  4264,  4276,  4286,  4289
4301,  4305,  4320,  4321,  4323,  4331,  4332,  4339,  4362,  4376,  4380,  4383,  4386,  4387,  4395,  4396
4411,  4412,  4413,  4414,  4419,  4425,  4434,  4450,  4454,  4461,  4468,  4472,  4475,  4476,  4478,  4479
** ... 21 like lines cut
*Elset, elset=__PickedSurf568_S1, internal, instance=OPAL325_GIfiller-1
145,  747, 2172, 2659, 2780, 2974, 3119, 3236, 4076, 4080, 4995, 5551, 5967, 6076, 7375, 7515
8837, 8904, 9675
*Elset, elset=__PickedSurf568_S4, internal, instance=OPAL325_GIfiller-1
728,  1789,  2106,  2576,  2835,  3033,  3098,  3115,  3128,  3241,  4234,  4453,  5154,  5590,  5888,  6137
6245,  6248,  6347,  7028,  7187,  7400,  8125,  8269,  8327,  8501,  8520,  8549,  8661,  8710, 10341, 10356
10417, 10579, 10717
*Elset, elset=__PickedSurf568_S2, internal, instance=OPAL325_GIfiller-1
1749,  2010,  2294,  2321,  2433,  2824,  3015,  3492,  3516,  3715,  4105,  4273,  4491,  4832,  5169,  5509
6029,  6636,  6771,  6969,  7033,  7134,  8721, 10355, 10458
*Surface, type=ELEMENT, name=_PickedSurf568, internal
__PickedSurf568_S3, S3
__PickedSurf568_S1, S1
__PickedSurf568_S4, S4
__PickedSurf568_S2, S2
*Elset, elset=__PickedSurf653_S3, internal, instance=OPAL325_GIfiller-1
78,  1554,  1572,  1582,  1633,  1653,  1657,  1665,  1669,  1728,  1765,  1775,  1776,  1783,  1787,  1794
1800,  1806,  1810,  1826,  1828,  1841,  1852,  1866,  1882,  1885,  1888,  1907,  1913,  1921,  1922,  1923
1932,  1943,  1948,  1958,  1967,  1980,  1994,  1995,  2000,  2002,  2008,  2012,  2163,  2184,  2201,  2203
2237,  2238,  2240,  2248,  2492,  2515,  2521,  2768,  2773,  2788,  2908,  2912,  2944,  2960,  3298,  3304
3310,  3318,  3329,  3336,  3343,  3345,  3347,  3353,  3354,  3355,  3363,  3386,  3394,  3400,  3403,  3404
3539,  3545,  3555,  3560,  3563,  3568,  3573,  3578,  3750,  3753,  3906,  3945,  4169,  4172,  4173,  4186
4188,  4189,  4191,  4198,  4201,  4213,  4216,  4233,  4236,  4240,  4241,  4300,  4347,  4370,  4729,  4916
4928,  4932,  4950,  4952,  4957,  4964,  4991,  4993,  5003,  5027,  5035,  5195,  5337,  5439,  5457,  5473
5489,  5599,  5605,  5796,  5810,  5817,  5818,  5820,  5821,  5824,  5846,  5857,  5860,  5861,  5939,  5957
5963,  5966,  6002,  6059,  6097,  6099,  6170,  6209,  6212,  6221,  6328,  6329,  6332,  6337,  6344,  6351
6361,  6667,  6673,  6685,  6690,  6824,  6827,  6830,  6933,  6939,  6943,  6946,  7264,  7274,  7358,  7360
7362,  7381,  7405,  7406,  7422,  7434,  7451,  7452,  7528,  7529,  7694,  7758,  7887,  7892,  7934,  8164
8649,  9353,  9402, 10097, 10106, 10110
*Elset, elset=__PickedSurf653_S4, internal, instance=OPAL325_GIfiller-1
747,  1429,  1905,  1929,  1950,  2518,  2520,  2770,  3281,  3321,  3348,  3548,  3932,  4960,  5440,  6336
6425,  6688,  6873,  7098,  8984, 10105, 10659
*Elset, elset=__PickedSurf653_S1, internal, instance=OPAL325_GIfiller-1
1558, 1559, 1789, 2732, 3033, 3368, 5449, 7429, 8661, 9277
*Elset, elset=__PickedSurf653_S2, internal, instance=OPAL325_GIfiller-1
1771, 1939, 4168, 4350, 4396, 5202, 5335, 5956, 5988, 5991, 6076, 6314, 6360, 7570
*Surface, type=ELEMENT, name=_PickedSurf653, internal
__PickedSurf653_S3, S3
__PickedSurf653_S4, S4
__PickedSurf653_S2, S2
__PickedSurf653_S1, S1
*Elset, elset=__PickedSurf659_SNEG, internal, instance=OPAL325_PBody-1, generate
1,  146,    1
*Surface, type=ELEMENT, name=_PickedSurf659, internal
__PickedSurf659_SNEG, SNEG
*Elset, elset=__PickedSurf675_SNEG, internal, instance=OPAL325_PM_mid-1, generate
1,  337,    1
*Surface, type=ELEMENT, name=_PickedSurf675, internal
__PickedSurf675_SNEG, SNEG
*Elset, elset=__PickedSurf677_SPOS, internal, instance=OPAL325_PBody-1, generate
1,  146,    1
*Elset, elset=__PickedSurf677_SNEG, internal, instance=OPAL325_PBody-1, generate
1,  146,    1
*Surface, type=ELEMENT, name=_PickedSurf677, internal
__PickedSurf677_SPOS, SPOS
__PickedSurf677_SNEG, SNEG
*Elset, elset=__PickedSurf679_SPOS, internal, instance=OPAL325_PBody-1, generate
1,  146,    1
*Elset, elset=__PickedSurf679_SNEG, internal, instance=OPAL325_PBody-1, generate
1,  146,    1
*Surface, type=ELEMENT, name=_PickedSurf679, internal
__PickedSurf679_SPOS, SPOS
__PickedSurf679_SNEG, SNEG
*Elset, elset=__PickedSurf682_SNEG, internal, instance=OPAL325_LA-1, generate
513,  1200,     1
*Surface, type=ELEMENT, name=_PickedSurf682, internal
__PickedSurf682_SNEG, SNEG
*Elset, elset=__PickedSurf683_SNEG, internal, instance=OPAL325_LA-1, generate
1337,  2021,     1
*Surface, type=ELEMENT, name=_PickedSurf683, internal
__PickedSurf683_SNEG, SNEG
*Elset, elset=__PickedSurf688_S3, internal, instance=OPAL325_GIfiller-1
85,    87,   206,   335,   353,   445,   531,   654,   661,   670,   739,   821,   826,   932,  1072,  1087
1108,  1214,  1244,  1324,  1512,  1543,  1544,  1569,  1570,  1581,  1584,  1588,  1593,  1594,  1599,  1601
1611,  1618,  1626,  1628,  1647,  1660,  1661,  1664,  1667,  1675,  1676,  1682,  1683,  1693,  1696,  1703
1718,  1720,  1722,  1724,  1726,  1730,  1731,  1738,  1741,  1746,  1748,  1759,  1760,  1771,  1795,  1803
1811,  1825,  1832,  1838,  1847,  1848,  1851,  1865,  1874,  1875,  1876,  1879,  1881,  1894,  1897,  1906
1924,  1929,  1937,  1945,  1947,  1950,  1952,  1955,  1959,  1960,  1974,  1977,  1978,  1984,  1986,  1990
1991,  1998,  2001,  2009,  2011,  2017,  2037,  2040,  2041,  2047,  2049,  2053,  2059,  2069,  2092,  2094
2096,  2108,  2109,  2110,  2116,  2117,  2118,  2120,  2121,  2129,  2135,  2140,  2143,  2146,  2149,  2151
2152,  2161,  2164,  2165,  2167,  2173,  2181,  2185,  2186,  2209,  2211,  2212,  2230,  2232,  2239,  2249
2250,  2262,  2264,  2272,  2283,  2286,  2300,  2306,  2309,  2314,  2323,  2326,  2328,  2333,  2335,  2336
2337,  2339,  2346,  2351,  2356,  2359,  2361,  2362,  2363,  2365,  2366,  2367,  2373,  2385,  2386,  2387
2388,  2398,  2407,  2410,  2424,  2431,  2432,  2435,  2437,  2446,  2447,  2450,  2468,  2472,  2480,  2483
2484,  2486,  2490,  2493,  2495,  2498,  2517,  2519,  2528,  2531,  2533,  2536,  2542,  2545,  2546,  2547
2548,  2550,  2555,  2557,  2561,  2570,  2573,  2583,  2587,  2597,  2599,  2602,  2605,  2607,  2609,  2610
2615,  2616,  2628,  2636,  2637,  2638,  2640,  2641,  2644,  2645,  2648,  2657,  2661,  2662,  2663,  2668
2672,  2673,  2677,  2683,  2687,  2690,  2691,  2695,  2696,  2698,  2704,  2707,  2708,  2709,  2714,  2716
2718,  2723,  2731,  2736,  2739,  2749,  2750,  2752,  2756,  2761,  2778,  2785,  2792,  2795,  2802,  2804
2809,  2812,  2816,  2818,  2819,  2829,  2834,  2840,  2842,  2853,  2855,  2860,  2870,  2871,  2874,  2887
2890,  2891,  2892,  2897,  2900,  2902,  2915,  2916,  2918,  2921,  2931,  2933,  2934,  2937,  2942,  2946
2948,  2951,  2952,  2954,  2970,  2971,  2977,  2978,  2979,  2983,  2984,  2988,  2990,  2992,  2996,  2998
** ... 56 like lines cut
*Elset, elset=__PickedSurf688_S1, internal, instance=OPAL325_GIfiller-1
145,  747, 1648, 1905, 2172, 2520, 2618, 2659, 2780, 2947, 2974, 3119, 3236, 3639, 3977, 4076
4080, 4141, 4522, 4714, 4729, 4778, 4788, 4790, 4801, 4835, 4995, 5190, 5202, 5210, 5286, 5359
5457, 5473, 5529, 5530, 5551, 5706, 5967, 6076, 6216, 6567, 7059, 7166, 7375, 7405, 7515, 7578
7596, 7598, 7606, 7643, 8310, 8837, 8904, 9675
*Elset, elset=__PickedSurf688_S4, internal, instance=OPAL325_GIfiller-1
728,  1257,  1558,  1699,  1789,  1914,  2106,  2257,  2505,  2511,  2562,  2576,  2822,  2835,  3033,  3089
3098,  3115,  3128,  3241,  3701,  3888,  3999,  4175,  4234,  4453,  4802,  4817,  5154,  5243,  5256,  5397
5436,  5590,  5683,  5888,  5902,  6004,  6137,  6155,  6245,  6248,  6347,  6360,  6539,  6562,  6685,  6824
6841,  6853,  6897,  6916,  6926,  7028,  7075,  7187,  7278,  7400,  7516,  7610,  7615,  7642,  8125,  8269
8327,  8401,  8501,  8520,  8549,  8661,  8710,  9611, 10341, 10347, 10356, 10417, 10547, 10579, 10717
*Elset, elset=__PickedSurf688_S2, internal, instance=OPAL325_GIfiller-1
1559,  1598,  1749,  1852,  2010,  2294,  2321,  2433,  2655,  2741,  2824,  2964,  2965,  2966,  3015,  3222
3338,  3426,  3492,  3516,  3715,  3739,  3841,  3881,  3982,  4041,  4105,  4273,  4449,  4491,  4524,  4530
4602,  4630,  4765,  4832,  5169,  5290,  5377,  5440,  5509,  5695,  5770,  5846,  5877,  5895,  6029,  6495
6501,  6552,  6636,  6771,  6857,  6920,  6969,  7033,  7134,  7316,  7420,  7438,  7608,  8721, 10060, 10355
10458,
*Surface, type=ELEMENT, name=_PickedSurf688, internal
__PickedSurf688_S3, S3
__PickedSurf688_S1, S1
__PickedSurf688_S4, S4
__PickedSurf688_S2, S2
*Elset, elset=__PickedSurf689_SPOS, internal, instance=OPAL325_LA-1, generate
1,  2021,     1
*Surface, type=ELEMENT, name=_PickedSurf689, internal
__PickedSurf689_SPOS, SPOS
*Surface, type=NODE, name=_PickedSet661_CNS_, internal
_PickedSet661, 1.
*Surface, type=NODE, name=_PickedSet646_CNS_, internal
_PickedSet646, 1.
*Surface, type=NODE, name=_PickedSet681_CNS_, internal
_PickedSet681, 1.
*Surface, type=NODE, name=_PickedSet680_CNS_, internal
_PickedSet680, 1.
*Orientation, name="Datum csys-1"
1.,           0.,           0.,           0.,           1.,           0.
1, 0.
** Constraint: ATLA-N_LA-tie
*Tie, name=ATLA-N_LA-tie, adjust=no, position tolerance=4., type=NODE TO SURFACE, no thickness
_PickedSet661_CNS_, _PickedSurf683
** Constraint: ATLA_D_LA-tie
*Tie, name=ATLA_D_LA-tie, adjust=no, position tolerance=4., type=NODE TO SURFACE, no thickness
_PickedSet646_CNS_, _PickedSurf682
** Constraint: PBody-LA-Tie
*Tie, name=PBody-LA-Tie, adjust=no, position tolerance=40., type=NODE TO SURFACE, no thickness
_PickedSet681_CNS_, _PickedSurf677
** Constraint: PM-PBody
*Tie, name=PM-PBody, adjust=no, position tolerance=40., type=NODE TO SURFACE, no thickness
_PickedSet680_CNS_, _PickedSurf679
** Constraint: RefPane
**Display Body, instance=OPAL325_RefPlane_MirrorN_0318_20-1
*End Assembly
*Amplitude, name=AMP-1, definition=SMOOTH STEP
0.,              0.,             0.1,            0.33,             0.2,            0.61,             0.3,            0.83
0.4,            0.96,             0.5,              1.
*Amplitude, name=AMP-2, time=TOTAL TIME
0.,              0.,            0.05,            0.08,             0.1,            0.15,            0.15,            0.23
0.2,             0.3,            0.25,            0.38,             0.3,            0.45,            0.35,            0.52
0.4,            0.58,            0.45,            0.64,             0.5,             0.7,            0.55,            0.76
0.6,             0.8,            0.65,            0.85,             0.7,            0.89,            0.75,            0.92
0.8,            0.95,            0.85,            0.97,             0.9,            0.99,              1.,              1.
*Amplitude, name=AMP-3
0.,              0.,           0.025,            0.08,            0.05,            0.15,           0.075,            0.23
0.1,             0.3,           0.125,            0.38,            0.15,            0.45,           0.175,            0.52
0.2,            0.58,           0.225,            0.64,            0.25,             0.7,           0.275,            0.76
0.3,             0.8,           0.325,            0.85,            0.35,            0.89,           0.375,            0.92
0.4,            0.95,           0.425,            0.97,            0.45,            0.99,             0.5,              1.
*Amplitude, name=AMP-4
0.,              0.,          0.0125,            0.08,           0.025,            0.15,          0.0375,            0.23
0.05,             0.3,          0.0625,            0.38,           0.075,            0.45,          0.0875,            0.52
0.1,            0.58,          0.1125,            0.64,           0.125,             0.7,          0.1375,            0.76
0.15,             0.8,          0.1625,            0.85,           0.175,            0.89,          0.1875,            0.92
0.2,            0.95,          0.2125,            0.97,           0.225,            0.99,            0.25,              1.
*Amplitude, name="active contraction"
0.,              0.,            0.05,              0.,             0.1,              0.,            0.15,              0.
0.2,              0.,            0.25,              0.,             0.3,              0.,            0.35,              0.
0.4,              0.,            0.45,              0.,             0.5,              0.,            0.55,            0.76
0.6,             0.8,            0.65,            0.85,             0.7,            0.89,            0.75,            0.92
0.8,            0.95,            0.85,            0.97,             0.9,            0.99,              1.,              1.
*Amplitude, name="active contraction-all time"
0.,              0.,            0.05,            0.08,             0.1,            0.15,            0.15,            0.23
0.2,             0.3,            0.25,            0.38,             0.3,            0.45,            0.35,            0.52
0.4,            0.58,            0.45,            0.64,             0.5,             0.7,            0.55,            0.76
0.6,             0.8,            0.65,            0.85,             0.7,            0.89,            0.75,            0.92
0.8,            0.95,            0.85,            0.97,             0.9,            0.99,              1.,              1.
*Amplitude, name="smooth step", definition=SMOOTH STEP
0.,              0.,            0.05,            0.08,             0.1,            0.15,            0.15,            0.23
0.2,             0.3,            0.25,            0.38,             0.3,            0.45,            0.35,            0.52
0.4,            0.58,            0.45,            0.64,             0.5,             0.7,            0.55,            0.76
0.6,             0.8,            0.65,            0.85,             0.7,            0.89,            0.75,            0.92
0.8,            0.95,            0.85,            0.97,             0.9,            0.99,              1.,              1.
**
** MATERIALS
**
*Material, name=ATFP_HYPER
*Density
1.1e-05,
*Hyperelastic, n=2, test data input
*Uniaxial Test Data
1.38501, 0.1
3.18666, 0.2
5.5303, 0.3
8.57895, 0.4
12.5448, 0.5
17.7036, 0.6
24.4143, 0.7
33.1437, 0.8
44.4993, 0.9
59.271,  1.
*Material, name=ATFP_HYPER_highdesity
*Density
0.00011,
*Hyperelastic, n=2, test data input
*Uniaxial Test Data
1.38501, 0.1
3.18666, 0.2
5.5303, 0.3
8.57895, 0.4
12.5448, 0.5
17.7036, 0.6
24.4143, 0.7
33.1437, 0.8
44.4993, 0.9
59.271,  1.
*Material, name=AVW_HYPER
*Density
1.1e-06,
*Hyperelastic, n=2, test data input
*Uniaxial Test Data
0.0138501, 0.1
0.0318666, 0.2
0.055303, 0.3
0.0857897, 0.4
0.125448, 0.5
0.177036, 0.6
0.244143, 0.7
0.331437, 0.8
0.444993, 0.9
0.592708,  1.
*Material, name=AVW_HYPER20
*Density
1.1e-06,
*Hyperelastic, n=2, test data input
*Uniaxial Test Data
0.00138501, 0.1
0.00318666, 0.2
0.0055303, 0.3
0.00857897, 0.4
0.0125448, 0.5
0.0177036, 0.6
0.0244143, 0.7
0.0331437, 0.8
0.0444993, 0.9
0.0592708,  1.
*Material, name="AVW_HYPER20_low density"
*Density
1.1e-07,
*Hyperelastic, n=2, test data input
*Uniaxial Test Data
0.00138501, 0.1
0.00318666, 0.2
0.0055303, 0.3
0.00857897, 0.4
0.0125448, 0.5
0.0177036, 0.6
0.0244143, 0.7
0.0331437, 0.8
0.0444993, 0.9
0.0592708,  1.
*Material, name=AVW_HYPER_200
*Density
1.1e-06,
*Hyperelastic, n=2, test data input
*Uniaxial Test Data
0.0277002, 0.1
0.0637332, 0.2
0.110606, 0.3
0.171579, 0.4
0.250896, 0.5
0.354072, 0.6
0.488286, 0.7
0.662874, 0.8
0.889986, 0.9
1.18542,  1.
*Material, name=CLPara_H100
*Density
9e-10,
*Hyperelastic, n=2, test data input
*Uniaxial Test Data
0.00268578,  0.1
0.0055405,  0.2
0.00857477,  0.3
0.0117999,  0.4
0.0152279,  0.5
0.0188715,  0.6
0.0227443,  0.7
0.0268606,  0.8
0.0312359,  0.9
0.0358864,   1.
1e-05, -0.1
1e-05, -0.2
1e-05, -0.3
1e-05, -0.4
1e-05, -0.5
1e-05, -0.6
1e-05, -0.7
1e-05, -0.8
1e-05, -0.9
*Material, name=CLUS_H1
*Density
9e-07,
*Hyperelastic, n=2, test data input
*Uniaxial Test Data
2.68578e-05,  0.1
5.5405e-05,  0.2
8.57477e-05,  0.3
0.000117999,  0.4
0.000152279,  0.5
0.000188715,  0.6
0.000227443,  0.7
0.000268606,  0.8
0.000312359,  0.9
0.000358864,   1.
-1e-06, -0.1
-1e-06, -0.2
-1e-06, -0.3
-1e-06, -0.4
-1e-06, -0.5
-1e-06, -0.6
-1e-06, -0.7
-1e-06, -0.8
-1e-06, -0.9
*Material, name=CLUS_H5
*Density
9e-07,
*Hyperelastic, n=2, test data input
*Uniaxial Test Data
0.000134289, 0.1
0.000277025, 0.2
0.000428739, 0.3
0.000589995, 0.4
0.000761395, 0.5
0.000943575, 0.6
0.00113722, 0.7
0.00134303, 0.8
0.00156179, 0.9
0.00179432,  1.
*Material, name=CLUS_H10
*Density
9e-07,
*Hyperelastic, n=2, test data input
*Uniaxial Test Data
0.000268578,  0.1
0.00055405,  0.2
0.000857477,  0.3
0.00117999,  0.4
0.00152279,  0.5
0.00188715,  0.6
0.00227443,  0.7
0.00268606,  0.8
0.00312359,  0.9
0.00358864,   1.
1e-05, -0.1
1e-05, -0.2
1e-05, -0.3
1e-05, -0.4
1e-05, -0.5
1e-05, -0.6
1e-05, -0.7
1e-05, -0.8
1e-05, -0.9
*Material, name=CLUS_H50
*Density
9e-07,
*Hyperelastic, n=2, test data input
*Uniaxial Test Data
0.00134289, 0.1
0.00277025, 0.2
0.00428739, 0.3
0.00589995, 0.4
0.00761395, 0.5
0.00943575, 0.6
0.0113721, 0.7
0.0134303, 0.8
0.015618, 0.9
0.0179432,  1.
*Material, name=CLUS_H100
*Density
9e-07,
*Hyperelastic, n=2, test data input
*Uniaxial Test Data
0.00268578,  0.1
0.0055405,  0.2
0.00857477,  0.3
0.0117999,  0.4
0.0152279,  0.5
0.0188715,  0.6
0.0227443,  0.7
0.0268606,  0.8
0.0312359,  0.9
0.0358864,   1.
1e-05, -0.1
1e-05, -0.2
1e-05, -0.3
1e-05, -0.4
1e-05, -0.5
1e-05, -0.6
1e-05, -0.7
1e-05, -0.8
1e-05, -0.9
*Material, name=CLpara_H10
*Density
9e-07,
*Hyperelastic, n=2, test data input
*Uniaxial Test Data
0.000134289,  0.1
0.000277025,  0.2
0.000428739,  0.3
0.000589995,  0.4
0.000761395,  0.5
0.000943575,  0.6
0.00113722,  0.7
0.00134303,  0.8
0.00156179,  0.9
0.00179432,   1.
1e-05, -0.1
1e-05, -0.2
1e-05, -0.3
1e-05, -0.4
1e-05, -0.5
1e-05, -0.6
1e-05, -0.7
1e-05, -0.8
1e-05, -0.9
*Material, name=PARAVAG_H
*Density
9e-07,
*Hyperelastic, n=2, test data input
*Uniaxial Test Data
0.00268578,  0.1
0.000268578,  0.2
0.00055405,  0.3
0.000857478,  0.4
0.00117999,  0.5
0.00152279,  0.6
0.00188715,  0.7
0.00227443,  0.8
0.00268606,  0.9
0.00312359,   1.
1e-05, -0.1
1e-05, -0.2
1e-05, -0.3
1e-05, -0.4
1e-05, -0.5
1e-05, -0.6
1e-05, -0.7
1e-05, -0.8
1e-05, -0.9
*Material, name=PARAVAG_H_highdensity
*Density
9e-07,
*Hyperelastic, n=2, test data input
*Uniaxial Test Data
0.0268578, 0.1
0.00268578, 0.2
0.0055405, 0.3
0.00857478, 0.4
0.0117999, 0.5
0.0152279, 0.6
0.0188715, 0.7
0.0227443, 0.8
0.0268606, 0.9
0.0312359,  1.
*Material, name=PARAVAG_H_lowdenstiy
*Density
9e-09,
*Hyperelastic, n=2, test data input
*Uniaxial Test Data
0.00268578,  0.1
0.000268578,  0.2
0.00055405,  0.3
0.000857478,  0.4
0.00117999,  0.5
0.00152279,  0.6
0.00188715,  0.7
0.00227443,  0.8
0.00268606,  0.9
0.00312359,   1.
1e-05, -0.1
1e-05, -0.2
1e-05, -0.3
1e-05, -0.4
1e-05, -0.5
1e-05, -0.6
1e-05, -0.7
1e-05, -0.8
1e-05, -0.9
*Material, name=PCM_HYPER10
*Density
1.1e-06,
*Hyperelastic, n=2, test data input
*Uniaxial Test Data
0.0014, 0.1
0.0032, 0.2
0.0055, 0.3
0.0086, 0.4
0.0125, 0.5
0.0177, 0.6
0.0244, 0.7
0.0331, 0.8
0.0445, 0.9
0.06,  1.
*Material, name=PCM_HYPER20
*Density
1.1e-06,
*Hyperelastic, n=2, test data input
*Uniaxial Test Data
0.00277002, 0.1
0.00637332, 0.2
0.0110606, 0.3
0.0171579, 0.4
0.0250896, 0.5
0.0354072, 0.6
0.0488286, 0.7
0.0662874, 0.8
0.0889986, 0.9
0.118542,  1.
*Material, name=PCM_HYPER40
*Density
1.1e-06,
*Hyperelastic, n=2, test data input
*Uniaxial Test Data
0.00554004, 0.1
0.0127466, 0.2
0.0221212, 0.3
0.0343159, 0.4
0.0501792, 0.5
0.0708144, 0.6
0.0976572, 0.7
0.132575, 0.8
0.177997, 0.9
0.237083,  1.
*Material, name=PCM_HYPER60
*Density
1.1e-06,
*Hyperelastic, n=2, test data input
*Uniaxial Test Data
0.00831006, 0.1
0.01912, 0.2
0.0331818, 0.3
0.0514738, 0.4
0.0752688, 0.5
0.106222, 0.6
0.146486, 0.7
0.198862, 0.8
0.266996, 0.9
0.355625,  1.
*Material, name=PCM_HYPER80
*Density
1.1e-06,
*Hyperelastic, n=2, test data input
*Uniaxial Test Data
0.0110801, 0.1
0.0254933, 0.2
0.0442424, 0.3
0.0686318, 0.4
0.100358, 0.5
0.141629, 0.6
0.195314, 0.7
0.26515, 0.8
0.355994, 0.9
0.474166,  1.
*Material, name=PCM_HYPER100
*Density
1.1e-06,
*Hyperelastic, n=2, test data input
*Uniaxial Test Data
0.0138501, 0.1
0.0318666, 0.2
0.055303, 0.3
0.0857897, 0.4
0.125448, 0.5
0.177036, 0.6
0.244143, 0.7
0.331437, 0.8
0.444993, 0.9
0.592708,  1.
*Material, name=PCM_HYPER300
*Density
1.1e-06,
*Hyperelastic, n=2, test data input
*Uniaxial Test Data
0.0415503, 0.1
0.0955998, 0.2
0.165909, 0.3
0.257369, 0.4
0.376344, 0.5
0.531108, 0.6
0.732429, 0.7
0.994311, 0.8
1.33498, 0.9
1.77812,  1.
**
** INTERACTION PROPERTIES
**
*Surface Interaction, name=Penalty
*Friction
1.,
*Surface Interaction, name=frictionless
*Friction
0.,
*Surface Interaction, name=rough
*Friction, rough
**
** BOUNDARY CONDITIONS
**
** Name: ATFP_Fix Type: Symmetry/Antisymmetry/Encastre
*Boundary
_PickedSet545, PINNED
** Name: ATFPbackends Type: Symmetry/Antisymmetry/Encastre
*Boundary
_PickedSet487, PINNED
** Name: ATLA_Fix Type: Symmetry/Antisymmetry/Encastre
*Boundary
_PickedSet586, PINNED
** Name: CL&US Type: Symmetry/Antisymmetry/Encastre
*Boundary
_PickedSet542, PINNED
** Name: LA-PBfix Type: Symmetry/Antisymmetry/Encastre
*Boundary
_PickedSet685, PINNED
** Name: LAposterior Type: Symmetry/Antisymmetry/Encastre
*Boundary
_PickedSet684, PINNED
** Name: PM Type: Displacement/Rotation
*Boundary
_PickedSet671, 1, 1
_PickedSet671, 2, 2
_PickedSet671, 3, 3
_PickedSet671, 4, 4
_PickedSet671, 5, 5
_PickedSet671, 6, 6
**
** INTERACTIONS
**
** Interaction: Self-Contact
*Contact, op=NEW
*Contact Inclusions, ALL EXTERIOR
*Contact Property Assignment
,  , frictionless
** ----------------------------------------------------------------
**
** STEP: Step-1
**
*Step, name=Step-1, nlgeom=YES
*Dynamic, Explicit
, 1.,, 0.1
*Bulk Viscosity
0.06, 1.2
**
** LOADS
**
** Name: pressure   Type: Pressure
*Dsload, amplitude="smooth step"
_PickedSurf560, P, 0.01
** Name: traction   Type: Surface traction
*Dsload, amplitude=AMP-4, orientation="Datum csys-1"
_PickedSurf544, TRVEC, 5e-05, 0., 0., -1.
**
** INTERACTIONS
**
** Interaction: AVW-Filler-Contact
*Contact Pair, interaction=frictionless, mechanical constraint=KINEMATIC, cpset=AVW-Filler-Contact
_PickedSurf555, _PickedSurf568
** Interaction: Filler-LA-Contact
*Contact Pair, interaction=Penalty, mechanical constraint=KINEMATIC, cpset=Filler-LA-Contact
_PickedSurf689, _PickedSurf688
** Interaction: Filler-PBody
*Contact Pair, interaction=rough, mechanical constraint=KINEMATIC, cpset=Filler-PBody
_PickedSurf659, _PickedSurf653
**
** OUTPUT REQUESTS
**
*Restart, write, number interval=1, time marks=NO
**
** FIELD OUTPUT: F-Output-1
**
*Output, field, number interval=10
*Node Output
A, COORD, RF, U, V
*Element Output, directions=YES
ELEDEN, ELEN, ENER, LE, PE, PEEQ, S
*Contact Output
CSTRESS,
**
** HISTORY OUTPUT: H-Output-1
**
*Output, history, variable=PRESELECT
*End Step
