<?xml version='1.0' encoding='utf-8'?>
<febio_spec version="4.0">
	<Module type="solid" />
	<Control>
		<analysis>STATIC</analysis>
		<time_steps>10</time_steps>
		<step_size>0.1</step_size>
		<plot_zero_state>0</plot_zero_state>
		<plot_range>0,-1</plot_range>
		<plot_level>PLOT_MAJOR_ITRS</plot_level>
		<output_level>OUTPUT_MAJOR_ITRS</output_level>
		<plot_stride>1</plot_stride>
		<output_stride>1</output_stride>
		<adaptor_re_solve>1</adaptor_re_solve>
		<time_stepper type="default">
			<max_retries>5</max_retries>
			<opt_iter>11</opt_iter>
			<dtmin>0</dtmin>
			<dtmax>0.1</dtmax>
			<aggressiveness>0</aggressiveness>
			<cutback>0.5</cutback>
			<dtforce>0</dtforce>
		</time_stepper>
		<solver type="solid">
			<symmetric_stiffness>symmetric</symmetric_stiffness>
			<equation_scheme>staggered</equation_scheme>
			<equation_order>default</equation_order>
			<optimize_bw>0</optimize_bw>
			<lstol>0.9</lstol>
			<lsmin>0.01</lsmin>
			<lsiter>5</lsiter>
			<max_refs>15</max_refs>
			<check_zero_diagonal>0</check_zero_diagonal>
			<zero_diagonal_tol>0</zero_diagonal_tol>
			<force_partition>0</force_partition>
			<reform_each_time_step>1</reform_each_time_step>
			<reform_augment>0</reform_augment>
			<diverge_reform>1</diverge_reform>
			<min_residual>1e-20</min_residual>
			<max_residual>0</max_residual>
			<dtol>0.001</dtol>
			<etol>0.01</etol>
			<rtol>0</rtol>
			<rhoi>-2</rhoi>
			<alpha>1</alpha>
			<beta>0.25</beta>
			<gamma>0.5</gamma>
			<logSolve>0</logSolve>
			<arc_length>0</arc_length>
			<arc_length_scale>0</arc_length_scale>
			<qn_method type="BFGS">
				<max_ups>10</max_ups>
				<max_buffer_size>0</max_buffer_size>
				<cycle_buffer>1</cycle_buffer>
				<cmax>100000</cmax>
			</qn_method>
		</solver>
	</Control>
	<Globals>
		<Constants>
			<T>0</T>
			<P>0</P>
			<R>8.31446</R>
			<Fc>96485.3</Fc>
		</Constants>
	</Globals>
	<Material>
		<material id="1" name="Material1" type="damage neo-Hookean">
			<density>1</density>
			<E>10</E>
			<v>0.2</v>
			<a>0.014</a>
			<b>0.34</b>
		</material>
	</Material>
	<Mesh>
		<Nodes name="Object5">
			<node id="1">1.999999999999968, -3.637090628672013e-13, 3.3539373353378163e-14</node>
			<node id="2">2.999999999998927, 3.397726544562829e-12, 1.9999129035725973e-15</node>
			<node id="3">2.6645352591003757e-15, 2.0000000000000036, -3.996495744701799e-17</node>
			<node id="4">-3.375077994860476e-14, 3.0000000000000533, -5.576705167711696e-17</node>
			<node id="5">-2.0000000000000293, -1.9984014443252818e-14, -2.2275120355520806e-16</node>
			<node id="6">-3.0000000000000147, 1.1546319456101628e-14, -1.3981574461709397e-16</node>
			<node id="7">-2.984279490192421e-13, -2.000000000000111, 5.180280041147979e-15</node>
			<node id="8">-1.1191048088221578e-13, -3.000000000000017, 8.064185237794575e-16</node>
			<node id="9">1.9739015920121437, -6.961662149529424e-14, 4.000000000000001</node>
			<node id="10">2.9967803406537774, -2.070565940925917e-14, 4.0</node>
			<node id="11">-8.393286066166183e-14, 1.973901592012353, 4.0</node>
			<node id="12">6.994405055138486e-14, 2.9967803406536495, 3.9999999999999982</node>
			<node id="13">-1.9739015920126364, -1.1074474670635936e-13, 3.9999999999999987</node>
			<node id="14">-2.9967803406536317, 4.551914400963142e-14, 3.999999999999999</node>
			<node id="15">-3.027578188152802e-13, -1.9739015920124983, 3.9999999999999987</node>
			<node id="16">9.459100169806334e-14, -2.996780340653639, 3.9999999999999996</node>
			<node id="17">2.316651243523749, -1.780797731498751e-13, 4.510328776601466e-15</node>
			<node id="18">2.5720102632628876, -2.3803181647963356e-13, 1.0698740627183794e-15</node>
			<node id="19">2.792786209440834, -6.177280909014371e-13, 7.798462009236679e-16</node>
			<node id="20">3.0000136812936873, -2.382982700055436e-12, 0.4999999999999874</node>
<!-- ... 1420 like lines cut -->
		</Nodes>
		<Elements type="hex8" name="Part5">
			<elem id="1">1,17,367,77,36,209,853,306</elem>
			<elem id="2">17,18,368,367,209,210,854,853</elem>
			<elem id="3">18,19,369,368,210,211,855,854</elem>
			<elem id="4">19,2,37,369,211,20,230,855</elem>
			<elem id="5">77,367,364,76,306,853,856,305</elem>
			<elem id="6">367,368,365,364,853,854,857,856</elem>
			<elem id="7">368,369,366,365,854,855,858,857</elem>
			<elem id="8">369,37,38,366,855,230,231,858</elem>
			<elem id="9">76,364,361,75,305,856,859,304</elem>
			<elem id="10">364,365,362,361,856,857,860,859</elem>
			<elem id="11">365,366,363,362,857,858,861,860</elem>
			<elem id="12">366,38,39,363,858,231,232,861</elem>
			<elem id="13">75,361,358,74,304,859,862,303</elem>
			<elem id="14">361,362,359,358,859,860,863,862</elem>
			<elem id="15">362,363,360,359,860,861,864,863</elem>
			<elem id="16">363,39,40,360,861,232,233,864</elem>
			<elem id="17">74,358,355,73,303,862,865,302</elem>
			<elem id="18">358,359,356,355,862,863,866,865</elem>
			<elem id="19">359,360,357,356,863,864,867,866</elem>
			<elem id="20">360,40,41,357,864,233,234,867</elem>
<!-- ... 1004 like lines cut -->
		</Elements>
		<Surface name="NormalDisplacement1">
			<quad4 id="1">77,367,17,1</quad4>
			<quad4 id="2">367,368,18,17</quad4>
			<quad4 id="3">368,369,19,18</quad4>
			<quad4 id="4">369,37,2,19</quad4>
			<quad4 id="5">76,364,367,77</quad4>
			<quad4 id="6">364,365,368,367</quad4>
			<quad4 id="7">365,366,369,368</quad4>
			<quad4 id="8">366,38,37,369</quad4>
			<quad4 id="9">75,361,364,76</quad4>
			<quad4 id="10">361,362,365,364</quad4>
			<quad4 id="11">362,363,366,365</quad4>
			<quad4 id="12">363,39,38,366</quad4>
			<quad4 id="13">74,358,361,75</quad4>
			<quad4 id="14">358,359,362,361</quad4>
			<quad4 id="15">359,360,363,362</quad4>
			<quad4 id="16">360,40,39,363</quad4>
			<quad4 id="17">73,355,358,74</quad4>
			<quad4 id="18">355,356,359,358</quad4>
			<quad4 id="19">356,357,360,359</quad4>
			<quad4 id="20">357,41,40,360</quad4>
<!-- ... 108 like lines cut -->
		</Surface>
		<Surface name="Pressure1">
			<quad4 id="1">3,71,300,61</quad4>
			<quad4 id="2">71,72,301,300</quad4>
			<quad4 id="3">72,73,302,301</quad4>
			<quad4 id="4">73,74,303,302</quad4>
			<quad4 id="5">74,75,304,303</quad4>
			<quad4 id="6">75,76,305,304</quad4>
			<quad4 id="7">76,77,306,305</quad4>
			<quad4 id="8">77,1,36,306</quad4>
			<quad4 id="9">61,300,307,62</quad4>
			<quad4 id="10">300,301,308,307</quad4>
			<quad4 id="11">301,302,309,308</quad4>
			<quad4 id="12">302,303,310,309</quad4>
			<quad4 id="13">303,304,311,310</quad4>
			<quad4 id="14">304,305,312,311</quad4>
			<quad4 id="15">305,306,313,312</quad4>
			<quad4 id="16">306,36,35,313</quad4>
			<quad4 id="17">62,307,314,63</quad4>
			<quad4 id="18">307,308,315,314</quad4>
			<quad4 id="19">308,309,316,315</quad4>
			<quad4 id="20">309,310,317,316</quad4>
<!-- ... 236 like lines cut -->
		</Surface>
	</Mesh>
	<MeshDomains>
		<SolidDomain name="Part5" mat="Material1" />
	</MeshDomains>
	<Boundary>
		<bc name="NormalDisplacement1" surface="NormalDisplacement1" type="normal displacement">
			<scale>0</scale>
			<surface_hint>0</surface_hint>
			<relative>0</relative>
		</bc>
	</Boundary>
	<Loads>
		<surface_load name="Pressure1" surface="Pressure1" type="pressure">
			<pressure lc="1" type="math">.1</pressure>
			<symmetric_stiffness>1</symmetric_stiffness>
			<linear>0</linear>
			<shell_bottom>0</shell_bottom>
		</surface_load>
	</Loads>
	<LoadData>
		<load_controller id="1" name="LC1" type="loadcurve">
			<interpolate>LINEAR</interpolate>
			<extend>CONSTANT</extend>
			<points>
				<pt>0,0</pt>
				<pt>1,1</pt>
			</points>
		</load_controller>
	</LoadData>
	<Output>
		<plotfile type="febio">
			<var type="displacement" />
			<var type="stress" />
			<var type="relative volume" />
		</plotfile>
		<logfile>
			<node_data data="x;y;z" />
		</logfile>
	</Output>
</febio_spec>