*Heading
** Job name: AVWremesh_test Model name: model1
** Generated by: Abaqus/CAE 2016
*Preprint, echo=NO, model=NO, history=NO, contact=NO
**
** PARTS
**
*Part, name=OPAL325_ATFP
*Node
1,   18.4495735,   8.87388229,  -22.5602055
2,   51.7812004,  -30.5793228,   22.1485519
3,  -25.8520317,   11.9009781,  -22.4409065
4,  -67.3580933,    -29.51054,     22.39851
5,   18.7712936,   8.52146053,  -22.4077053
6,    19.087204,   8.16783428,  -22.2461185
7,   19.3970432,   7.81318045,  -22.0752926
8,   19.7005444,   7.45769215,  -21.8950825
9,   19.9974442,   7.10157537,   -21.705368
10,   20.2874775,   6.74505234,  -21.5060387
11,    20.570385,   6.38835812,  -21.2970142
12,   20.8459148,   6.03174257,   -21.078228
13,   21.1138229,   5.67546558,  -20.8496437
14,   21.3738766,   5.31979895,   -20.611248
15,   21.6258545,   4.96502399,  -20.3630543
16,   21.8695564,   4.61142731,  -20.1051064
17,   22.1047955,   4.25930119,   -19.837471
18,   22.3314075,   3.90894175,  -19.5602493
19,   22.5492516,   3.56064248,  -19.2735615
20,   22.7582111,   3.21469665,   -18.977562
** ... 286 like lines cut
*Element, type=T3D2
1,   1,   5
2,   5,   6
3,   6,   7
4,   7,   8
5,   8,   9
6,   9,  10
7,  10,  11
8,  11,  12
9,  12,  13
10,  13,  14
11,  14,  15
12,  15,  16
13,  16,  17
14,  17,  18
15,  18,  19
16,  19,  20
17,  20,  21
18,  21,  22
19,  22,  23
20,  23,  24
** ... 284 like lines cut
*Nset, nset=_PickedSet5, internal, generate
1,  306,    1
*Elset, elset=_PickedSet5, internal, generate
1,  304,    1
*Nset, nset=_PickedSet7, internal, generate
1,  306,    1
*Elset, elset=_PickedSet7, internal, generate
1,  304,    1
** Section: ATPF-wire
*Solid Section, elset=_PickedSet5, material=ATFP_HYPER
1.,
*Nonstructural Mass, elset=_PickedSet7, units=TOTAL MASS
0.005,
*End Part
**
*Part, name=OPAL325_ATLA
*Node
1,   52.2790375,  -30.6023216,   22.4525356
2,    24.368988,  -8.03931236,  -27.3604107
3,  -66.2551956,  -30.5507946,   22.3432255
4,  -46.6685181,   30.0492096,   1.58248425
5,   52.2110519,  -30.5412045,   22.4120865
6,    52.143116,  -30.4800873,   22.3715553
7,   52.0752335,  -30.4189701,   22.3309422
8,   52.0073967,   -30.357851,   22.2902451
9,   51.9396133,  -30.2967319,    22.249464
10,   51.8718834,  -30.2356129,   22.2085991
11,    51.804203,  -30.1744919,   22.1676521
12,   51.7365723,  -30.1133709,   22.1266193
13,   51.6689949,   -30.052248,   22.0855026
14,   51.6014671,   -29.991127,   22.0443001
15,   51.5339966,  -29.9300041,   22.0030136
16,   51.4665718,  -29.8688812,   21.9616432
17,   51.3992043,  -29.8077583,   21.9201851
18,   51.3318901,  -29.7466335,    21.878643
19,   51.2646255,  -29.6855106,   21.8370152
20,   51.1974182,  -29.6243858,   21.7953014
** ... 1332 like lines cut
*Element, type=T3D2
1,   1,   5
2,   5,   6
3,   6,   7
4,   7,   8
5,   8,   9
6,   9,  10
7,  10,  11
8,  11,  12
9,  12,  13
10,  13,  14
11,  14,  15
12,  15,  16
13,  16,  17
14,  17,  18
15,  18,  19
16,  19,  20
17,  20,  21
18,  21,  22
19,  22,  23
20,  23,  24
** ... 1330 like lines cut
*Nset, nset=_PickedSet4, internal, generate
1,  1352,     1
*Elset, elset=_PickedSet4, internal, generate
1,  1350,     1
*Nset, nset=_PickedSet5, internal, generate
1,  1352,     1
*Elset, elset=_PickedSet5, internal, generate
1,  1350,     1
** Section: ATPF-wire
*Solid Section, elset=_PickedSet5, material=ATFP_HYPER
1.,
*Nonstructural Mass, elset=_PickedSet4, units=TOTAL MASS
0.005,
*End Part
**
*Part, name=OPAL325_AVW_v6
*Node
1,22.93937869999999,-9.367217799197734, 7.7531500076603725
2,   -23.477602,-9.285305867845645, 9.384923246466203
3,-24.198781999999994,-9.479370321399209, 15.652782319458671
4,21.944852799999985,-10.640195782188039, 13.67399005204306
5,23.01121139999999,-8.229718260593213, 3.1687491087158253
6,-22.474988900000003,-8.671854532930594, 3.939868230295009
7,22.51308249999997,-7.420422814215938, -0.4485630347846115
8,-21.681650199999986,-7.630114949572038, -0.688738221232186
9,20.904968299999982,-6.428330809563951, -5.05055933226845
10,-21.236722900000007,-4.999928875723142, -6.457201517018756
11,    19.053463,-5.346660818212542, -9.413305399427731
12,   -20.843029,-2.279931549611606, -10.531661762011746
13,   17.6541882,-3.879492206452182, -14.644514575735714
14,-20.486291899999998,0.03153790217354666, -14.847549761648779
15,   17.1224346,-2.7706975450359876, -19.592051083066647
16,  -20.4879246,0.9710558021906599, -19.59232652190917
17,   16.7474861,-3.737388422384821, -22.909490702774427
18,-20.442667000000007,-1.7812962134888157, -22.67892710624664
19,15.746652461784457,-4.66782919289353, -25.736547169326748
20,-19.772022256880213,-2.710139600845241, -25.844160987751014
** ... 250 like lines cut
*Element, type=S4R
1,   1,  27, 180,  54
2,  27,  28, 181, 180
3,  28,  29, 182, 181
4,  29,  30, 183, 182
5,  30,  31, 184, 183
6,  31,  32, 185, 184
7,  32,  33, 186, 185
8,  33,  34, 187, 186
9,  34,  35, 188, 187
10,  35,  36, 189, 188
11,  36,  37, 190, 189
12,  37,  38, 191, 190
13,  38,  39, 192, 191
14,  39,   2,  40, 192
15,  54, 180,  53,   4
16, 180, 181,  52,  53
17, 181, 182,  51,  52
18, 182, 183,  50,  51
19, 183, 184,  49,  50
20, 184, 185,  48,  49
** ... 218 like lines cut
*Node
271,           0.,           0.,           0.
*Nset, nset=_PickedSet13, internal, generate
1,  270,    1
*Elset, elset=_PickedSet13, internal, generate
1,  238,    1
*Nset, nset=_PickedSet33, internal
19,  20,  21,  22,  23,  24,  25,  26, 156, 157, 158, 159, 160, 161, 162, 163
164, 165, 166, 167, 168, 169, 170, 171, 172, 173, 174, 175, 176, 177, 178, 179
258, 259, 260, 261, 262, 263, 264, 265, 266, 267, 268, 269, 270
*Elset, elset=_PickedSet33, internal, generate
211,  238,    1
*Nset, nset=_PickedSet34, internal
1,   2,   3,   4,   5,   6,   7,   8,   9,  10,  11,  12,  13,  14,  15,  16
17,  18,  19,  20,  27,  28,  29,  30,  31,  32,  33,  34,  35,  36,  37,  38
39,  40,  41,  42,  43,  44,  45,  46,  47,  48,  49,  50,  51,  52,  53,  54
55,  56,  57,  58,  59,  60,  61,  62,  63,  64,  65,  66,  67,  68,  69,  70
71,  72,  73,  74,  75,  76,  77,  78,  79,  80,  81,  82,  83,  84,  85,  86
87,  88,  89,  90,  91,  92,  93,  94,  95,  96,  97,  98,  99, 100, 101, 102
103, 104, 105, 106, 107, 108, 109, 110, 111, 112, 113, 114, 115, 116, 117, 118
119, 120, 121, 122, 123, 124, 125, 126, 127, 128, 129, 130, 131, 132, 133, 134
135, 136, 137, 138, 139, 140, 141, 142, 143, 144, 145, 146, 147, 148, 149, 150
151, 152, 153, 154, 155, 156, 157, 158, 159, 160, 161, 162, 163, 164, 165, 166
167, 168, 180, 181, 182, 183, 184, 185, 186, 187, 188, 189, 190, 191, 192, 193
194, 195, 196, 197, 198, 199, 200, 201, 202, 203, 204, 205, 206, 207, 208, 209
210, 211, 212, 213, 214, 215, 216, 217, 218, 219, 220, 221, 222, 223, 224, 225
226, 227, 228, 229, 230, 231, 232, 233, 234, 235, 236, 237, 238, 239, 240, 241
242, 243, 244, 245, 246, 247, 248, 249, 250, 251, 252, 253, 254, 255, 256, 257
*Elset, elset=_PickedSet34, internal, generate
1,  210,    1
*Nset, nset=_PickedSet35, internal, generate
1,  270,    1
*Elset, elset=_PickedSet35, internal, generate
1,  238,    1
** Section: AWP
*Shell Section, elset=_PickedSet34, material=AVW_HYPER_Analog, offset=SPOS
2., 5
** Section: AWP_dis
*Shell Section, elset=_PickedSet33, material=ATFP_HYPER_highdesity, offset=SPOS
2., 5
*Nonstructural Mass, elset=_PickedSet35, units=TOTAL MASS
0.02,
*End Part
**
*Part, name=OPAL325_CL_v6
*Node
1,   -23.477602,-9.285305867845645, 9.384923246466201
2,  -51.6031265,  -20.0011997,          66.0
3,-21.681650199999986,-7.630114949572038, -0.6887382212321853
4,  -54.3323517,  -20.0011997,          66.0
5,   -20.843029,-2.2799315496116073, -10.531661762011751
6,  -56.5408401,  -20.0011997,          66.0
7,    48.057724,  -20.0011997,    60.6057892
8,22.93937869999999,-9.367217799197734, 7.7531500076603805
9,   48.7779503,  -20.0011997,    61.1147537
10,22.51308249999997,-7.420422814215938, -0.44856303478460546
11,         49.5,  -20.0011997,        61.625
12,    19.053463,-5.346660818212541, -9.413305399427728
13,   49.1636162,  -19.9960423,    61.3710022
14,20.904968299999982,-6.428330809563951, -5.050559332268456
15,   48.3391304,  -20.0011997,    60.8046494
16,23.01121139999999,-8.229718260593215, 3.168749108715822
17,       47.625,  -20.0011997,    60.2999992
18,21.94485279999999,-10.640195782188039, 13.67399005204306
19,-21.236722900000004,-4.999928875723143, -6.45720151701876
20,  -55.4875565,  -20.0011997,          66.0
** ... 1570 like lines cut
*Element, type=T3D2
1,   1,  25
2,  25,  26
3,  26,  27
4,  27,  28
5,  28,  29
6,  29,  30
7,  30,  31
8,  31,  32
9,  32,  33
10,  33,  34
11,  34,  35
12,  35,  36
13,  36,  37
14,  37,  38
15,  38,  39
16,  39,  40
17,  40,  41
18,  41,  42
19,  42,  43
20,  43,  44
** ... 1558 like lines cut
*Nset, nset=_PickedSet4, internal, generate
1,  24,   1
*Nset, nset=_PickedSet5, internal, generate
1,  1590,     1
*Elset, elset=_PickedSet5, internal, generate
1,  1578,     1
** Section: CL-wire
*Solid Section, elset=_PickedSet5, material=CL_Analog
1.,
*Element, type=ROTARYI, elset=_PickedSet4_Inertia-1_
1579, 1
1580, 2
1581, 3
1582, 4
1583, 5
1584, 6
1585, 7
1586, 8
1587, 9
1588, 10
1589, 11
1590, 12
1591, 13
1592, 14
1593, 15
1594, 16
1595, 17
1596, 18
1597, 19
1598, 20
** ... 4 like lines cut
*Rotary Inertia, elset=_PickedSet4_Inertia-1_
0.0001, 0.0001, 0.0001, 0., 0., 0.
*End Part
**
*Part, name=OPAL325_GIfiller
*Node
1,-7.932286739999999,-27.971653900006373, -31.671920925862434
2,  -16.4990864,-20.918752801609685, -32.087070106961484
3,-2.627686740000003,-7.371403272122471, -30.783286260539768
4,4.905803199999994,-25.778417732945858, -33.17699857787639
5,-21.533147799999995,-19.092696559054684, 12.514815482723861
6,-3.4313061200000035,-6.50140802461365, 12.830904961592276
7,17.341405899999998,-25.938583142635185, 9.922954444846974
8,8.035838129999991,-16.968976446267835, -12.558453468819723
9,7.635223869999991,-17.18012814025742, -16.846709104624722
10,1.7173885099999942,-43.87132764410132, 11.382662700790428
11,-10.052822099999998,-28.19107763701569, -32.81298578128015
12,-11.237276099999997,-27.235291215167873, -33.69701160114797
13,-12.764427199999997,-25.5726995620819, -33.62366601231384
14,-14.695110299999998,-23.530614885592307, -32.992869718665936
15,-18.098127400000003,-16.38338029107312, -30.984658895334764
16,-18.558971400000004,-11.496281652543285, -30.101673759668955
17,  -16.7899628,-7.219051866989175, -30.58005393659829
18,-14.514381400000001,-5.618788556783116, -31.14819469078454
19,-11.590913800000004,-5.516314759290936, -31.21103650546341
20,-6.727774140000003,-6.602883458260784, -30.936042802282806
** ... 847 like lines cut
*Element, type=C3D4
1, 478, 479, 480, 481
2, 478, 482, 479, 481
3, 478, 483, 484, 485
4, 478, 484, 482, 486
5, 487, 488, 489, 490
6, 491, 492, 493, 494
7, 495, 492, 493, 496
8, 491, 497, 498, 499
9, 491, 488, 500, 501
10, 491, 493, 502, 494
11, 491, 493, 498, 497
12, 503, 504, 505, 506
13, 503, 483, 507, 508
14, 503, 483, 508, 509
15,  67, 297, 510,   4
16, 509, 483, 511, 503
17, 503, 512, 507, 483
18, 503, 512, 511, 504
19, 513, 514, 515,  64
20, 516, 506, 517, 513
** ... 3585 like lines cut
*Nset, nset=_PickedSet5, internal, generate
1,  867,    1
*Elset, elset=_PickedSet5, internal, generate
1,  3605,     1
*Nset, nset=_PickedSet6, internal, generate
1,  867,    1
*Elset, elset=_PickedSet6, internal, generate
1,  3605,     1
** Section: VAGFiller
*Solid Section, elset=_PickedSet6, material="AVW_HYPER20_low density"
1.,
*Nonstructural Mass, elset=_PickedSet5, units=TOTAL MASS
0.2,
*End Part
**
*Part, name=OPAL325_LA
*Node
1,-7.070252420000003,-21.817389484221454, -20.431588867016302
2,30.004299200000002,-7.9834899471118765, -14.391717985692702
3,52.279037500000015,-33.224981353174535, 23.61529131427468
4,-3.7461431000000016,-48.01006362335489, 6.8178174639745395
5,  -32.6155357,17.012131146045384, -19.20590179029103
6,-46.668518100000014,26.969409961854687, 3.5178996957947684
7,-26.243742000000008,-1.2461017471102154, -29.036627501249903
8,-7.138134479999999,-28.242164100753204, -31.63989589932549
9,24.368987999999998,-10.95692350031331, -31.495861254914118
10,  -66.2551956,-34.31908334683189, 24.066574097570232
11,-4.1215472200000045,-21.71425312522268, -20.86557109196352
12,-1.4493480900000049,-21.213307659797156, -20.986394285155246
13,0.752413868999994,-20.5763583157975, -20.54931043352755
14,2.574402569999993,-19.873375506718666, -19.88796667493579
15,4.540480139999993,-19.26991272556669, -19.161617431298065
16,6.644737239999992,-18.718971415796403, -18.458560456192483
17,8.914343829999993,-18.190787205736548, -17.82506102940632
18,11.071336699999991,-17.47997005587223, -17.294045499772704
19,12.786786999999991,-16.363494005115864, -16.902826336823967
20,14.577849399999993,-15.073014644217219, -16.63395462809984
** ... 1238 like lines cut
*Element, type=S3R
1, 468, 381, 469
2, 565, 401, 386
3, 303, 407, 269
4, 503, 309, 502
5, 382, 397, 396
6, 239, 519, 246
7, 533, 520, 442
8, 536, 423, 541
385,   1,  96,  95
386, 633, 572, 598
387, 604, 602, 570
388, 573, 100, 101
389, 632, 631, 578
390, 637, 591, 611
486, 712, 702, 644
487, 691, 648, 665
488, 712, 700, 641
489, 730, 646, 699
603, 800, 831, 780
604, 844, 779, 782
** ... 15 like lines cut
*Element, type=S4R
9, 229, 228, 241, 476
10, 228,  11,  12, 241
11, 429, 430, 476, 241
12, 251, 252, 431, 430
13, 412, 253, 411, 540
14, 254, 433, 253, 412
15, 255, 254, 412, 413
16, 499, 472, 417, 416
17, 529, 553, 530, 278
18, 546, 521, 279, 559
19, 224, 292, 473, 510
20, 474, 510,  54,  55
21, 262, 279, 521, 495
22, 500, 489, 262, 495
23, 255, 413, 542, 427
24, 254, 255, 434, 433
25, 476, 475, 230, 229
26, 241,  12,  13, 429
27, 429, 249, 428, 250
28, 257, 249,  14,  15
** ... 1148 like lines cut
*Nset, nset=_PickedSet20, internal
1,   5,   7,   8,  77,  78,  79,  80,  81,  82,  83,  84,  85,  86,  87,  88
89,  90,  91,  92,  93,  94,  95, 130, 131, 132, 133, 134, 135, 136, 137, 138
139, 140, 141, 142, 143, 144, 145, 146, 147, 148, 149, 150, 151, 152, 153, 154
639, 640, 641, 642, 643, 644, 645, 646, 647, 648, 649, 650, 651, 652, 653, 654
655, 656, 657, 658, 659, 660, 661, 662, 663, 664, 665, 666, 667, 668, 669, 670
671, 672, 673, 674, 675, 676, 677, 678, 679, 680, 681, 682, 683, 684, 685, 686
687, 688, 689, 690, 691, 692, 693, 694, 695, 696, 697, 698, 699, 700, 701, 702
703, 704, 705, 706, 707, 708, 709, 710, 711, 712, 713, 714, 715, 716, 717, 718
719, 720, 721, 722, 723, 724, 725, 726, 727, 728, 729, 730
*Elset, elset=_PickedSet20, internal, generate
486,  602,    1
*Nset, nset=_PickedSet21, internal
1,   2,   8,   9,  11,  12,  13,  14,  15,  16,  17,  18,  19,  20,  21,  22
23,  24,  25, 150, 151, 152, 153, 154, 155, 156, 157, 158, 159, 160, 161, 162
163, 164, 165, 166, 167, 168, 169, 170, 171, 172, 173, 174, 175, 731, 732, 733
734, 735, 736, 737, 738, 739, 740, 741, 742, 743, 744, 745, 746, 747, 748, 749
750, 751, 752, 753, 754, 755, 756, 757, 758, 759, 760, 761, 762, 763, 764, 765
766, 767, 768, 769, 770, 771, 772, 773, 774, 775, 776, 777, 778, 779, 780, 781
782, 783, 784, 785, 786, 787, 788, 789, 790, 791, 792, 793, 794, 795, 796, 797
798, 799, 800, 801, 802, 803, 804, 805, 806, 807, 808, 809, 810, 811, 812, 813
814, 815, 816, 817, 818, 819, 820, 821, 822, 823, 824, 825, 826, 827, 828, 829
830, 831, 832, 833, 834, 835, 836, 837, 838, 839, 840, 841, 842, 843, 844, 845
846,
*Elset, elset=_PickedSet21, internal, generate
603,  742,    1
*Nset, nset=_PickedSet22, internal
1,   5,   6,  77,  78,  79,  80,  81,  82,  83,  84,  85,  86,  87,  88,  89
90,  91,  92,  93,  94,  95,  96,  97,  98,  99, 100, 101, 102, 103, 104, 105
106, 107, 108, 109, 110, 111, 112, 113, 114, 115, 116, 117, 118, 119, 120, 121
122, 123, 124, 125, 126, 127, 128, 129, 568, 569, 570, 571, 572, 573, 574, 575
576, 577, 578, 579, 580, 581, 582, 583, 584, 585, 586, 587, 588, 589, 590, 591
592, 593, 594, 595, 596, 597, 598, 599, 600, 601, 602, 603, 604, 605, 606, 607
608, 609, 610, 611, 612, 613, 614, 615, 616, 617, 618, 619, 620, 621, 622, 623
624, 625, 626, 627, 628, 629, 630, 631, 632, 633, 634, 635, 636, 637, 638
*Elset, elset=_PickedSet22, internal, generate
385,  485,    1
*Nset, nset=_PickedSet23, internal, generate
1,  1258,     1
*Elset, elset=_PickedSet23, internal, generate
1,  1203,     1
*Nset, nset=_PickedSet24, internal
1,    2,    3,    4,    6,   10,   11,   12,   13,   14,   15,   16,   17,   18,   19,   20
21,   22,   23,   24,   25,   26,   27,   28,   29,   30,   31,   32,   33,   34,   35,   36
37,   38,   39,   40,   41,   42,   43,   44,   45,   46,   47,   48,   49,   50,   51,   52
53,   54,   55,   56,   57,   58,   59,   60,   61,   62,   63,   64,   65,   66,   67,   68
69,   70,   71,   72,   73,   74,   75,   76,   96,   97,   98,   99,  100,  101,  102,  103
104,  105,  106,  107,  108,  109,  110,  111,  112,  113,  114,  115,  116,  117,  118,  119
120,  176,  177,  178,  179,  180,  181,  182,  183,  184,  185,  186,  187,  188,  189,  190
191,  192,  193,  194,  195,  196,  197,  198,  199,  200,  201,  202,  203,  204,  205,  206
207,  208,  209,  210,  211,  212,  213,  214,  215,  216,  217,  218,  219,  220,  221,  222
223,  224,  225,  226,  227,  228,  229,  230,  231,  232,  233,  234,  235,  236,  237,  238
239,  240,  241,  242,  243,  244,  245,  246,  247,  248,  249,  250,  251,  252,  253,  254
255,  256,  257,  258,  259,  260,  261,  262,  263,  264,  265,  266,  267,  268,  269,  270
271,  272,  273,  274,  275,  276,  277,  278,  279,  280,  281,  282,  283,  284,  285,  286
287,  288,  289,  290,  291,  292,  293,  294,  295,  296,  297,  298,  299,  300,  301,  302
303,  304,  305,  306,  307,  308,  309,  310,  311,  312,  313,  314,  315,  316,  317,  318
319,  320,  321,  322,  323,  324,  325,  326,  327,  328,  329,  330,  331,  332,  333,  334
335,  336,  337,  338,  339,  340,  341,  342,  343,  344,  345,  346,  347,  348,  349,  350
351,  352,  353,  354,  355,  356,  357,  358,  359,  360,  361,  362,  363,  364,  365,  366
367,  368,  369,  370,  371,  372,  373,  374,  375,  376,  377,  378,  379,  380,  381,  382
383,  384,  385,  386,  387,  388,  389,  390,  391,  392,  393,  394,  395,  396,  397,  398
** ... 37 like lines cut
*Elset, elset=_PickedSet24, internal
1,    2,    3,    4,    5,    6,    7,    8,    9,   10,   11,   12,   13,   14,   15,   16
17,   18,   19,   20,   21,   22,   23,   24,   25,   26,   27,   28,   29,   30,   31,   32
33,   34,   35,   36,   37,   38,   39,   40,   41,   42,   43,   44,   45,   46,   47,   48
49,   50,   51,   52,   53,   54,   55,   56,   57,   58,   59,   60,   61,   62,   63,   64
65,   66,   67,   68,   69,   70,   71,   72,   73,   74,   75,   76,   77,   78,   79,   80
81,   82,   83,   84,   85,   86,   87,   88,   89,   90,   91,   92,   93,   94,   95,   96
97,   98,   99,  100,  101,  102,  103,  104,  105,  106,  107,  108,  109,  110,  111,  112
113,  114,  115,  116,  117,  118,  119,  120,  121,  122,  123,  124,  125,  126,  127,  128
129,  130,  131,  132,  133,  134,  135,  136,  137,  138,  139,  140,  141,  142,  143,  144
145,  146,  147,  148,  149,  150,  151,  152,  153,  154,  155,  156,  157,  158,  159,  160
161,  162,  163,  164,  165,  166,  167,  168,  169,  170,  171,  172,  173,  174,  175,  176
177,  178,  179,  180,  181,  182,  183,  184,  185,  186,  187,  188,  189,  190,  191,  192
193,  194,  195,  196,  197,  198,  199,  200,  201,  202,  203,  204,  205,  206,  207,  208
209,  210,  211,  212,  213,  214,  215,  216,  217,  218,  219,  220,  221,  222,  223,  224
225,  226,  227,  228,  229,  230,  231,  232,  233,  234,  235,  236,  237,  238,  239,  240
241,  242,  243,  244,  245,  246,  247,  248,  249,  250,  251,  252,  253,  254,  255,  256
257,  258,  259,  260,  261,  262,  263,  264,  265,  266,  267,  268,  269,  270,  271,  272
273,  274,  275,  276,  277,  278,  279,  280,  281,  282,  283,  284,  285,  286,  287,  288
289,  290,  291,  292,  293,  294,  295,  296,  297,  298,  299,  300,  301,  302,  303,  304
305,  306,  307,  308,  309,  310,  311,  312,  313,  314,  315,  316,  317,  318,  319,  320
** ... 33 like lines cut
** Section: ICM
*Shell Section, elset=_PickedSet24, material=PCM_HYPER100
2., 5
** Section: PCM
*Shell Section, elset=_PickedSet22, material=PCM_Hyper_Analog
4., 5
** Section: PRMPCM
*Shell Section, elset=_PickedSet20, material=PCM_Hyper_Analog
6., 5
** Section: PRM
*Shell Section, elset=_PickedSet21, material=PCM_Hyper_Analog
2., 5
*Nonstructural Mass, elset=_PickedSet23, units=MASS PER VOLUME
1.1e-06,
*End Part
**
*Part, name=OPAL325_PBody
*Node
1,0.3355888719999976,-25.172621792636306, -33.481717419460864
2,-2.4936599700000004,-23.71362569977856, -33.305391096162296
3,-6.188378809999998,-22.86573869567718, -33.206243886955576
4,-9.049901009999997,-23.09705215886237, -33.1802670715155
5,-11.148625399999998,-24.27696050699663, -33.41732703700018
6,2.7405893799999963,-26.884717479230687, -33.92609925496653
7,  -12.6132145,-26.45127914421218, -34.482268809573306
8,-14.255386399999999,-24.585245477273588, -33.517957296228765
9,-15.897560100000002,-22.479729932766162, -32.56195453044968
10,-17.540098200000003,-19.767311844677323, -31.800457502433275
11,  -19.1665897,-16.292444427149917, -31.32716742109381
12,-20.760431300000015,-12.84753702263066, -30.888735033534914
13,-16.836589800000006,-12.411070584725337, -31.196010220030985
14,-8.970830920000003,-11.346647107116667, -31.960652509154684
15,-4.991555690000002,-11.199005822229879, -32.19805703174325
16,-1.0178011700000038,-11.508244451005737, -32.150122919295214
17,6.890953539999983,-12.723545201482636, -31.84867013956916
18,10.830097199999981,-13.347102615325753, -31.85117560711452
19,14.662596699999991,-14.359334959226771, -31.928358504384164
20,   17.9100361,-16.448474158700492, -31.929484046344868
** ... 34 like lines cut
*Element, type=S3R
1, 54, 30, 29
2, 51, 39, 38
*Element, type=S4R
3, 28, 29,  2,  3
4, 43, 49, 36, 42
5, 19, 20, 21, 46
6, 18, 19, 46, 45
7, 29, 30,  1,  2
8, 52, 50, 45, 46
9, 34, 28,  3, 27
10, 27,  3,  4, 26
11,  4,  5, 25, 26
12,  5,  7,  8, 25
13, 25,  8,  9, 31
14, 31,  9, 10, 38
15, 10, 11, 51, 38
16, 11, 12, 13, 51
17, 39, 47, 14, 40
18, 33, 32, 39, 40
19, 26, 32, 33, 27
20, 26, 25, 31, 32
21, 40, 14, 15, 41
22, 41, 15, 16, 42
** ... 19 like lines cut
*Nset, nset=_PickedSet4, internal, generate
1,  54,   1
*Elset, elset=_PickedSet4, internal, generate
1,  41,   1
** Section: PBody
*Shell Section, elset=_PickedSet4, material=PARAVAG_H_highdensity
2., 5
*End Part
**
*Part, name=OPAL325_PM_mid
*Node
1,-56.10303500000001,-13.637805329988716, -27.052827635485002
2,-50.11732100000001,-14.211370268040202, -28.016915116220098
3,-47.12446590000001,-14.602425338839256, -28.534485048248044
4,-41.13874820000001,-15.588002947064398, -29.613303770903045
5,-38.14589310000001,-16.16695842559315, -30.142747705768944
6,-35.15303420000001,-16.784600725851764, -30.633016304913333
7,-29.167320300000014,-18.062880933119924, -31.390484700270004
8,-26.17446330000001,-18.692868064911046, -31.6270842447763
9,-20.188747400000008,-19.977727750611038, -32.122347536078394
10,-59.095893900000014,-13.441300400000213, -26.600330400000146
11,  -17.1958904,-20.468572023519275, -31.92514857415763
12,-18.40871050000001,-17.746661161966326, -31.526539909475034
13,  -19.8266582,-15.12088696717213, -31.16945324434545
14,-20.947074900000015,-12.366918404770857, -30.8300227384597
15,-20.982236900000007,-9.388508276950366, -30.49798040798263
16,-20.64654729999999,-6.418209739577394, -30.17752895960037
17,-19.140071900000006,-0.6481384190743745, -29.58148624023727
18,-15.870575000000002,4.344691363479164, -29.127503964323793
19,  -13.6795206,6.393370961097292, -28.96957723929456
20,-11.209122700000002,8.097876684520873, -28.857501766785973
** ... 275 like lines cut
*Element, type=S3R
1, 284,  87,  86
2, 208, 207, 196
3, 203, 206, 202
4, 286, 178, 180
5, 121, 120, 128
6, 109, 294, 110
7, 295, 127, 132
8, 160, 167, 165
9, 198, 197, 207
10, 224,  34, 223
11, 264, 213, 210
*Element, type=S4R
12,  77,  10,   1,  89
13,  96,  89,  88,  95
14,  95,  88,  87, 284
15,  86, 270,  93, 284
16,  85,  84,  91,  92
17,  91,  84,  83,  90
18,  83,  82, 267,  90
19,  13,  97,  78,  12
20,  12,  78,   9,  11
21,  79,  78,  97, 261
22,  97,  13,  14, 106
23,  16, 131, 116,  15
24, 138, 295, 137, 143
25, 148, 155, 149, 153
26, 147, 158, 155, 148
27, 162, 163,  66,  67
28,  67, 254, 159, 162
29, 156, 159, 254,  68
30, 150, 152, 149, 156
31, 144, 138, 143, 152
** ... 219 like lines cut
*Nset, nset=_PickedSet4, internal, generate
1,  295,    1
*Elset, elset=_PickedSet4, internal, generate
1,  250,    1
** Section: PBody
*Shell Section, elset=_PickedSet4, material=PARAVAG_H_highdensity
2., 5
*End Part
**
*Part, name=OPAL325_Para_v6
*Node
      1,  -25.8009739,   11.8042965,   -22.4799175
      2,   -20.843029,-2.2799315496116055, -10.531661762011746
      3,-25.769085211921794,11.727528198417097, -22.49770786642032
      4,-19.772022256880213,-2.7101396008452436, -25.844160987751014
      5,-18.847756838840528,0.47716896865901504, -26.412680305169385
      6,-20.442667000000007,-1.7812962134888153, -22.67892710624664
      7,   18.4495735,   8.87388229,   -22.5602055
      8,    19.053463,-5.346660818212543, -9.413305399427731
      9,   17.6541882,-3.8794922064521824, -14.644514575735716
     10,   17.1224346,-2.770697545035988, -19.592051083066647
     11,   16.7474861,-3.7373884223848215, -22.909490702774427
     12,15.746652461784457,-4.66782919289353, -25.736547169326748
     13,13.324862698079842,-0.6188319970956506, -26.45205854576163
     14,-25.768198234226084,11.601422084867217, -22.362835680858424
     15,-20.486291899999998,0.031537902173546684, -14.847549761648779
     16,  -25.8520317,   11.9009781,   -22.4409065
     17,  -20.4879246,0.9710558021906603, -19.59232652190917
     18,-25.99138239485784,11.46895866097227, -22.19543533316983
     19,-26.17490158042575,11.133619674826432, -21.91095316633966
     20,-26.344792025200764,10.798280688680594, -21.62647092661086
** ... 315 like lines cut
*Element, type=T3D2
1,  1, 18
2, 18, 19
3, 19, 20
4, 20, 21
5, 21, 22
6, 22, 23
7, 23, 24
8, 24, 25
9, 25, 26
10, 26, 27
11, 27, 28
12, 28, 29
13, 29, 30
14, 30, 31
15, 31, 32
16, 32, 33
17, 33, 34
18, 34, 35
19, 35, 36
20, 36, 37
** ... 312 like lines cut
*Nset, nset=_PickedSet4, internal, generate
1,  17,   1
*Nset, nset=_PickedSet13, internal
1,   2,   3,   6,   7,   8,   9,  10,  11,  14,  15,  16,  17,  18,  19,  20
21,  22,  23,  24,  25,  26,  27,  28,  29,  30,  31,  32,  33,  34,  35,  36
37,  38,  39,  40,  41,  42,  43,  44,  45,  46,  47,  48,  49,  50,  51,  52
53,  54,  55,  56,  57,  58, 107, 108, 109, 110, 111, 112, 113, 114, 115, 116
117, 118, 119, 120, 121, 122, 123, 124, 125, 126, 127, 128, 129, 130, 131, 132
133, 134, 135, 136, 137, 138, 139, 140, 141, 142, 143, 144, 145, 146, 147, 148
149, 150, 151, 152, 153, 154, 155, 156, 157, 158, 159, 160, 161, 162, 163, 164
165, 166, 167, 168, 169, 170, 171, 172, 173, 174, 175, 176, 177, 178, 179, 180
181, 182, 183, 184, 185, 186, 187, 188, 189, 190, 191, 192, 193, 194, 195, 196
197, 198, 199, 200, 201, 202, 203, 204, 205, 206, 207, 208, 209, 210, 211, 212
213, 214, 215, 216, 217, 218, 219, 220, 221, 222, 223, 224, 225, 226, 227, 228
229, 230, 231, 232, 233, 234, 235, 236, 237, 238, 239, 240, 241, 242, 282, 283
284, 285, 286, 287, 288, 289, 290, 291, 292, 293, 294, 295, 296, 297, 298, 299
300, 301, 302, 303, 304, 305, 306, 307, 308, 309, 310, 311, 312, 313, 314, 315
316, 317, 318, 319, 320, 321, 322, 323, 324, 325, 326, 327, 328, 329, 330, 331
332, 333, 334, 335
*Elset, elset=_PickedSet13, internal
1,   2,   3,   4,   5,   6,   7,   8,   9,  10,  11,  12,  13,  14,  15,  16
17,  18,  19,  20,  21,  22,  23,  24,  25,  26,  27,  28,  29,  30,  31,  32
33,  34,  35,  36,  37,  38,  39,  40,  41,  42,  94,  95,  96,  97,  98,  99
100, 101, 102, 103, 104, 105, 106, 107, 108, 109, 110, 111, 112, 113, 114, 115
116, 117, 118, 119, 120, 121, 122, 123, 124, 125, 126, 127, 128, 129, 130, 131
132, 133, 134, 135, 136, 137, 138, 139, 140, 141, 142, 143, 144, 145, 146, 147
148, 149, 150, 151, 152, 153, 154, 155, 156, 157, 158, 159, 160, 161, 162, 163
164, 165, 166, 167, 168, 169, 170, 171, 172, 173, 174, 175, 176, 177, 178, 179
180, 181, 182, 183, 184, 185, 186, 187, 188, 189, 190, 191, 192, 193, 194, 195
196, 197, 198, 199, 200, 201, 202, 203, 204, 205, 206, 207, 208, 209, 210, 211
212, 213, 214, 215, 216, 217, 218, 219, 220, 221, 222, 223, 224, 225, 226, 227
228, 229, 230, 231, 232, 233, 234, 276, 277, 278, 279, 280, 281, 282, 283, 284
285, 286, 287, 288, 289, 290, 291, 292, 293, 294, 295, 296, 297, 298, 299, 300
301, 302, 303, 304, 305, 306, 307, 308, 309, 310, 311, 312, 313, 314, 315, 316
317, 318, 319, 320, 321, 322, 323, 324, 325, 326, 327, 328, 329, 330, 331, 332
*Nset, nset=_PickedSet14, internal
1,   3,   4,   5,   7,  12,  13,  59,  60,  61,  62,  63,  64,  65,  66,  67
68,  69,  70,  71,  72,  73,  74,  75,  76,  77,  78,  79,  80,  81,  82,  83
84,  85,  86,  87,  88,  89,  90,  91,  92,  93,  94,  95,  96,  97,  98,  99
100, 101, 102, 103, 104, 105, 106, 243, 244, 245, 246, 247, 248, 249, 250, 251
252, 253, 254, 255, 256, 257, 258, 259, 260, 261, 262, 263, 264, 265, 266, 267
268, 269, 270, 271, 272, 273, 274, 275, 276, 277, 278, 279, 280, 281
*Elset, elset=_PickedSet14, internal
43,  44,  45,  46,  47,  48,  49,  50,  51,  52,  53,  54,  55,  56,  57,  58
59,  60,  61,  62,  63,  64,  65,  66,  67,  68,  69,  70,  71,  72,  73,  74
75,  76,  77,  78,  79,  80,  81,  82,  83,  84,  85,  86,  87,  88,  89,  90
91,  92,  93, 235, 236, 237, 238, 239, 240, 241, 242, 243, 244, 245, 246, 247
248, 249, 250, 251, 252, 253, 254, 255, 256, 257, 258, 259, 260, 261, 262, 263
264, 265, 266, 267, 268, 269, 270, 271, 272, 273, 274, 275
** Section: Para-wire
*Solid Section, elset=_PickedSet13, material=PARAVAG_H_Analog
1.,
** Section: Para-wire-high
*Solid Section, elset=_PickedSet14, material=ATFP_HYPER
1.,
*Element, type=ROTARYI, elset=_PickedSet4_Inertia-1_
333, 1
334, 2
335, 3
336, 4
337, 5
338, 6
339, 7
340, 8
341, 9
342, 10
343, 11
344, 12
345, 13
346, 14
347, 15
348, 16
349, 17
*Rotary Inertia, elset=_PickedSet4_Inertia-1_
0.0001, 0.0001, 0.0001, 0., 0., 0.
*End Part
**
*Part, name=OPAL325_US_v6
*Node
1,   -23.477602,-9.285305867845643, 9.384923246466201
2,  -42.9855118,  -48.8706436,    30.1705265
3,23.01121139999999,-8.22971826059321, 3.168749108715822
4,   41.3603134,  -43.5253143,     36.219883
5,21.944852799999985,-10.640195782188037, 13.67399005204306
6,   38.2782516,  -43.6821213,      41.80653
7,22.93937869999999,-9.367217799197732, 7.753150007660377
8,   40.5875053,  -43.5851135,    38.2664413
9,-22.474988900000003,-8.671854532930595, 3.9398682302950085
10,  -46.1745834,   -47.645504,    28.5606918
11,-24.198781999999994,-9.479370321399209, 15.652782319458673
12,  -37.7613182,  -49.0136185,    31.9891529
13,-23.68294801235717,-9.701993957645321, 9.603719432545876
14,-23.888294124010145,-10.118682017514175, 9.822515618625552
15,-24.09364023566312,-10.535369129573702, 10.04131056196027
16,-24.29898823393643,-10.95205723932726, 10.260106623765449
17,-24.5043342462936,-11.368745349080811, 10.478902809845124
18,-24.709680357946578,-11.785432461140338, 10.697698995924803
19,-24.915026469599553,-12.20212057089389, 10.916493939259517
20,-25.12037248195672,-12.618808680647447, 11.135290125339193
** ... 547 like lines cut
*Element, type=T3D2
1,   1,  13
2,  13,  14
3,  14,  15
4,  15,  16
5,  16,  17
6,  17,  18
7,  18,  19
8,  19,  20
9,  20,  21
10,  21,  22
11,  22,  23
12,  23,  24
13,  24,  25
14,  25,  26
15,  26,  27
16,  27,  28
17,  28,  29
18,  29,  30
19,  30,  31
20,  31,  32
** ... 541 like lines cut
*Nset, nset=_PickedSet4, internal, generate
1,  12,   1
*Nset, nset=_PickedSet5, internal, generate
1,  567,    1
*Elset, elset=_PickedSet5, internal, generate
1,  561,    1
** Section: US-wire
*Solid Section, elset=_PickedSet5, material=US_Analog
1.,
*Element, type=ROTARYI, elset=_PickedSet4_Inertia-1_
562, 1
563, 2
564, 3
565, 4
566, 5
567, 6
568, 7
569, 8
570, 9
571, 10
572, 11
573, 12
*Rotary Inertia, elset=_PickedSet4_Inertia-1_
0.0001, 0.0001, 0.0001, 0., 0., 0.
*End Part
**
*Part, name=OPAL325_refPlane_0318_2011
*Node
1,  -59.0564117,  -16.7335472,  -27.1485138
2,   46.1918221,  -16.7335472,  -29.2845459
3,   46.1918221,   18.8250408,  -23.3724499
4,  -59.0564117,   18.8250408,  -21.2364178
5,  -48.5315895,  -16.7335472,  -27.3621159
6,  -38.0067673,  -16.7335472,  -27.5757198
7,  -27.4819412,  -16.7335472,  -27.7893238
8,   -16.957119,  -16.7335472,  -28.0029259
9,  -6.43229485,  -16.7335472,  -28.2165298
10,   4.09252882,  -16.7335472,  -28.4301338
11,   14.6173525,  -16.7335472,  -28.6437359
12,   25.1421757,  -16.7335472,  -28.8573399
13,   35.6669998,  -16.7335472,  -29.0709419
14,   46.1918221,  -4.88068485,  -27.3138466
15,   46.1918221,   6.97217798,  -25.3431492
16,   35.6669998,   18.8250408,  -23.1588478
17,   25.1421757,   18.8250408,  -22.9452438
18,   14.6173525,   18.8250408,  -22.7316399
19,   4.09252882,   18.8250408,  -22.5180378
20,  -6.43229485,   18.8250408,  -22.3044338
** ... 31 like lines cut
*Element, type=S4R
1, 26, 50, 51, 25
2, 40, 22, 23, 41
3, 43, 38, 28, 46
4, 36, 19, 20, 37
5, 18, 29, 30, 17
6, 45, 44, 34, 31
7, 32, 16, 17, 30
8, 13,  2, 14, 33
9, 45, 32, 30, 44
10, 15,  3, 16, 32
11, 34, 35, 10, 11
12, 35, 49, 46, 28
13, 27, 37, 20, 21
14,  8,  9, 28, 38
15, 43, 47, 39, 38
16, 41, 51, 48, 47
17, 24, 51, 41, 23
18, 25, 51, 24,  4
19, 48, 51, 50, 42
20,  1,  5, 50, 26
** ... 17 like lines cut
*End Part
**
**
** ASSEMBLY
**
*Assembly, name=Assembly
**
*Instance, name=OPAL325_ATFP-1, part=OPAL325_ATFP
*End Instance
**
*Instance, name=OPAL325_GIfiller-1, part=OPAL325_GIfiller
*End Instance
**
*Instance, name=OPAL325_LA-1, part=OPAL325_LA
*End Instance
**
*Instance, name=OPAL325_ATLA-1, part=OPAL325_ATLA
*End Instance
**
*Instance, name=OPAL325_CL_v6-1, part=OPAL325_CL_v6
*End Instance
**
*Instance, name=OPAL325_Para_v6-1, part=OPAL325_Para_v6
*End Instance
**
*Instance, name=OPAL325_AVW_v6-1, part=OPAL325_AVW_v6
*End Instance
**
*Instance, name=OPAL325_US_v6-1, part=OPAL325_US_v6
*End Instance
**
*Instance, name=OPAL325_PBody-1, part=OPAL325_PBody
*End Instance
**
*Instance, name=OPAL325_PM_mid-1, part=OPAL325_PM_mid
*End Instance
**
**Instance, name=OPAL325_refPlane_0318_2011-1, part=OPAL325_refPlane_0318_2011
**End Instance
**
*Element, type=CONN3D2
1, OPAL325_AVW_v6-1.11, OPAL325_Para_v6-1.8
2, OPAL325_AVW_v6-1.12, OPAL325_Para_v6-1.2
3, OPAL325_AVW_v6-1.14, OPAL325_Para_v6-1.15
4, OPAL325_AVW_v6-1.16, OPAL325_Para_v6-1.17
5, OPAL325_AVW_v6-1.18, OPAL325_Para_v6-1.6
6, OPAL325_AVW_v6-1.20, OPAL325_Para_v6-1.4
7, OPAL325_AVW_v6-1.26, OPAL325_Para_v6-1.5
8, OPAL325_AVW_v6-1.13, OPAL325_Para_v6-1.9
9, OPAL325_AVW_v6-1.15, OPAL325_Para_v6-1.10
10, OPAL325_AVW_v6-1.17, OPAL325_Para_v6-1.11
11, OPAL325_AVW_v6-1.19, OPAL325_Para_v6-1.12
12, OPAL325_AVW_v6-1.21, OPAL325_Para_v6-1.13
*Connector Section, elset=Wire-1-Set-1
Weld,
*Element, type=CONN3D2
13, OPAL325_AVW_v6-1.2, OPAL325_CL_v6-1.1
14, OPAL325_AVW_v6-1.5, OPAL325_CL_v6-1.16
15, OPAL325_US_v6-1.7, OPAL325_AVW_v6-1.1
16, OPAL325_AVW_v6-1.4, OPAL325_CL_v6-1.18
17, OPAL325_US_v6-1.11, OPAL325_AVW_v6-1.3
18, OPAL325_AVW_v6-1.6, OPAL325_US_v6-1.9
19, OPAL325_CL_v6-1.5, OPAL325_AVW_v6-1.12
20, OPAL325_AVW_v6-1.10, OPAL325_CL_v6-1.19
21, OPAL325_CL_v6-1.3, OPAL325_AVW_v6-1.8
22, OPAL325_CL_v6-1.21, OPAL325_AVW_v6-1.6
23, OPAL325_US_v6-1.1, OPAL325_AVW_v6-1.2
24, OPAL325_CL_v6-1.23, OPAL325_AVW_v6-1.3
25, OPAL325_US_v6-1.5, OPAL325_AVW_v6-1.4
26, OPAL325_AVW_v6-1.1, OPAL325_CL_v6-1.8
27, OPAL325_US_v6-1.3, OPAL325_AVW_v6-1.5
28, OPAL325_AVW_v6-1.7, OPAL325_CL_v6-1.10
29, OPAL325_AVW_v6-1.9, OPAL325_CL_v6-1.14
30, OPAL325_AVW_v6-1.11, OPAL325_CL_v6-1.12
*Connector Section, elset=Wire-2-Set-1
Weld,
*Nset, nset=AVW, instance=OPAL325_AVW_v6-1, generate
1,  270,    1
*Elset, elset=AVW, instance=OPAL325_AVW_v6-1, generate
1,  238,    1
*Nset, nset=Wire-1-Set-1, instance=OPAL325_AVW_v6-1
11, 12, 13, 14, 15, 16, 17, 18, 19, 20, 21, 26
*Nset, nset=Wire-1-Set-1, instance=OPAL325_Para_v6-1
2,  4,  5,  6,  8,  9, 10, 11, 12, 13, 15, 17
*Elset, elset=Wire-1-Set-1, generate
1,  12,   1
*Nset, nset=Wire-2-Set-1, instance=OPAL325_AVW_v6-1, generate
1,  12,   1
*Nset, nset=Wire-2-Set-1, instance=OPAL325_CL_v6-1
1,  3,  5,  8, 10, 12, 14, 16, 18, 19, 21, 23
*Nset, nset=Wire-2-Set-1, instance=OPAL325_US_v6-1, generate
1,  11,   2
*Elset, elset=Wire-2-Set-1, generate
13,  30,   1
*Nset, nset=_PickedSet487, internal, instance=OPAL325_ATFP-1
2, 4
*Nset, nset=_PickedSet487, internal, instance=OPAL325_ATLA-1
2, 4
*Nset, nset=_PickedSet542, internal, instance=OPAL325_CL_v6-1
2,  4,  6,  7,  9, 11, 13, 15, 17, 20, 22, 24
*Nset, nset=_PickedSet542, internal, instance=OPAL325_US_v6-1, generate
2,  12,   2
*Nset, nset=_PickedSet545, internal, instance=OPAL325_ATFP-1
1, 3
*Nset, nset=_PickedSet545, internal, instance=OPAL325_Para_v6-1
1,  3,  7, 14, 16
*Elset, elset=_PickedSet545, internal, instance=OPAL325_Para_v6-1
43, 308
*Nset, nset=_PickedSet575, internal, instance=OPAL325_LA-1
3,   4,  10,  41,  42,  43,  44,  45,  46,  47,  48,  49,  50,  51,  52,  53
54,  55,  56,  57,  58,  59,  60,  61,  62,  63, 176, 177, 178, 179, 180, 181
182, 183, 184, 185, 186, 187, 188, 189, 190, 191, 192, 193, 194, 195, 196, 197
198, 199
*Elset, elset=_PickedSet575, internal, instance=OPAL325_LA-1
20,   33,   87,   88,   89,   92,  115,  118,  126,  151,  155,  156,  165,  166,  181,  193
243,  277,  344,  346,  347,  357,  358,  359,  755,  774,  776,  778,  829,  830,  832,  833
853,  864,  886,  888,  893,  924,  930, 1024, 1094, 1126, 1141, 1148, 1149, 1150, 1153, 1158
1161,
*Nset, nset=_PickedSet576, internal, instance=OPAL325_LA-1
5,   6, 121, 122, 123, 124, 125, 126, 127, 128, 129
*Elset, elset=_PickedSet576, internal, instance=OPAL325_LA-1
415, 419, 420, 425, 431, 435, 436, 437, 439, 440
*Nset, nset=_PickedSet582, internal, instance=OPAL325_LA-1
5,   7, 130, 131, 132, 133, 134
*Elset, elset=_PickedSet582, internal, instance=OPAL325_LA-1
518, 519, 521, 527, 597, 598
*Nset, nset=_PickedSet585, internal, instance=OPAL325_PBody-1
6,  7,  8,  9, 10, 11, 12, 20, 21, 22, 23, 24
*Elset, elset=_PickedSet585, internal, instance=OPAL325_PBody-1
5, 12, 13, 14, 15, 16, 27, 28, 29, 37
*Nset, nset=_PickedSet586, internal, instance=OPAL325_ATLA-1, generate
1,  4,  1
*Nset, nset=_PickedSet596, internal, instance=OPAL325_ATLA-1
1,   2,   5,   6,   7,   8,   9,  10,  11,  12,  13,  14,  15,  16,  17,  18
19,  20,  21,  22,  23,  24,  25,  26,  27,  28,  29,  30,  31,  32,  33,  34
35,  36,  37,  38,  39,  40,  41,  42,  43,  44,  45,  46,  47,  48,  49,  50
51,  52,  53,  54,  55,  56,  57,  58,  59,  60,  61,  62,  63,  64,  65,  66
67,  68,  69,  70,  71,  72,  73,  74,  75,  76,  77,  78,  79,  80,  81,  82
83,  84,  85,  86,  87,  88,  89,  90,  91,  92,  93,  94,  95,  96,  97,  98
99, 100, 101, 102, 103, 104, 105, 106, 107, 108, 109, 110, 111, 112, 113, 114
115, 116, 117, 118, 119, 120, 121, 122, 123, 124, 125, 126, 127, 128, 129, 130
131, 132, 133, 134, 135, 136, 137, 138, 139, 140, 141, 142, 143, 144, 145, 146
147, 148, 149, 150, 151, 152, 153, 154, 155, 156, 157, 158, 159, 160, 161, 162
163, 164, 165, 166, 167, 168, 169, 170, 171, 172, 173, 174, 175, 176, 177, 178
179, 180, 181, 182, 183, 184, 185, 186, 187, 188, 189, 190, 191, 192, 193, 194
195, 196, 197, 198, 199, 200, 201, 202, 203, 204, 205, 206, 207, 208, 209, 210
211, 212, 213, 214, 215, 216, 217, 218, 219, 220, 221, 222, 223, 224, 225, 226
227, 228, 229, 230, 231, 232, 233, 234, 235, 236, 237, 238, 239, 240, 241, 242
243, 244, 245, 246, 247, 248, 249, 250, 251, 252, 253, 254, 255, 256, 257, 258
259, 260, 261, 262, 263, 264, 265, 266, 267, 268, 269, 270, 271, 272, 273, 274
275, 276, 277, 278, 279, 280, 281, 282, 283, 284, 285, 286, 287, 288, 289, 290
291, 292, 293, 294, 295, 296, 297, 298, 299, 300, 301, 302, 303, 304, 305, 306
307, 308, 309, 310, 311, 312, 313, 314, 315, 316, 317, 318, 319, 320, 321, 322
** ... 22 like lines cut
*Elset, elset=_PickedSet596, internal, instance=OPAL325_ATLA-1, generate
1,  661,    1
*Nset, nset=_PickedSet597, internal, instance=OPAL325_ATLA-1
3,    4,  665,  666,  667,  668,  669,  670,  671,  672,  673,  674,  675,  676,  677,  678
679,  680,  681,  682,  683,  684,  685,  686,  687,  688,  689,  690,  691,  692,  693,  694
695,  696,  697,  698,  699,  700,  701,  702,  703,  704,  705,  706,  707,  708,  709,  710
711,  712,  713,  714,  715,  716,  717,  718,  719,  720,  721,  722,  723,  724,  725,  726
727,  728,  729,  730,  731,  732,  733,  734,  735,  736,  737,  738,  739,  740,  741,  742
743,  744,  745,  746,  747,  748,  749,  750,  751,  752,  753,  754,  755,  756,  757,  758
759,  760,  761,  762,  763,  764,  765,  766,  767,  768,  769,  770,  771,  772,  773,  774
775,  776,  777,  778,  779,  780,  781,  782,  783,  784,  785,  786,  787,  788,  789,  790
791,  792,  793,  794,  795,  796,  797,  798,  799,  800,  801,  802,  803,  804,  805,  806
807,  808,  809,  810,  811,  812,  813,  814,  815,  816,  817,  818,  819,  820,  821,  822
823,  824,  825,  826,  827,  828,  829,  830,  831,  832,  833,  834,  835,  836,  837,  838
839,  840,  841,  842,  843,  844,  845,  846,  847,  848,  849,  850,  851,  852,  853,  854
855,  856,  857,  858,  859,  860,  861,  862,  863,  864,  865,  866,  867,  868,  869,  870
871,  872,  873,  874,  875,  876,  877,  878,  879,  880,  881,  882,  883,  884,  885,  886
887,  888,  889,  890,  891,  892,  893,  894,  895,  896,  897,  898,  899,  900,  901,  902
903,  904,  905,  906,  907,  908,  909,  910,  911,  912,  913,  914,  915,  916,  917,  918
919,  920,  921,  922,  923,  924,  925,  926,  927,  928,  929,  930,  931,  932,  933,  934
935,  936,  937,  938,  939,  940,  941,  942,  943,  944,  945,  946,  947,  948,  949,  950
951,  952,  953,  954,  955,  956,  957,  958,  959,  960,  961,  962,  963,  964,  965,  966
967,  968,  969,  970,  971,  972,  973,  974,  975,  976,  977,  978,  979,  980,  981,  982
** ... 24 like lines cut
*Elset, elset=_PickedSet597, internal, instance=OPAL325_ATLA-1, generate
662,  1350,     1
*Nset, nset=_PickedSet610, internal, instance=OPAL325_GIfiller-1
3,
*Nset, nset=_PickedSet612, internal, instance=OPAL325_AVW_v6-1
22,
*Nset, nset=_PickedSet614, internal, instance=OPAL325_AVW_v6-1
25,
*Nset, nset=_PickedSet637, internal, instance=OPAL325_PM_mid-1
11,  12,  13,  14,  15,  16,  17,  18,  19,  20,  21,  22,  23,  24,  25,  26
27,  28,  29,  30,  31,  32,  33,  34,  35,  36,  37, 240, 241, 242, 243
*Elset, elset=_PickedSet637, internal, instance=OPAL325_PM_mid-1
19,  20,  22,  23,  47,  48,  49,  59,  65,  69,  72,  73,  75,  83,  94,  96
97, 101, 102, 119, 174, 190, 195, 196, 202, 203, 207, 223, 228, 241
*Nset, nset=_PickedSet638, internal, instance=OPAL325_PBody-1
6,  7,  8,  9, 10, 11, 12, 20, 21, 22, 23, 24
*Elset, elset=_PickedSet638, internal, instance=OPAL325_PBody-1
5, 12, 13, 14, 15, 16, 27, 28, 29, 37
*Nset, nset=_PickedSet639, internal, instance=OPAL325_PM_mid-1
10,  46,  47,  48,  49,  50,  51,  52,  53,  54,  55,  56,  57,  58,  59,  60
61,  62,  63,  64,  65,  66,  67,  68,  69,  70,  71,  72,  73,  74,  75,  76
77, 247, 248, 249, 250, 251, 252, 253, 254, 255, 256, 257
*Elset, elset=_PickedSet639, internal, instance=OPAL325_PM_mid-1
12,  27,  28,  29,  44,  45,  46,  55,  56,  64,  68,  71,  82,  87, 115, 116
117, 120, 122, 123, 124, 125, 133, 135, 136, 137, 139, 143, 144, 145, 146, 157
165, 184, 201, 204, 205, 208, 213, 214, 216, 235, 236
*Elset, elset=__PickedSurf544_SPOS, internal, instance=OPAL325_AVW_v6-1, generate
1,  238,    1
*Surface, type=ELEMENT, name=_PickedSurf544, internal
__PickedSurf544_SPOS, SPOS
*Elset, elset=__PickedSurf571_SNEG, internal, instance=OPAL325_PBody-1, generate
1,  41,   1
*Surface, type=ELEMENT, name=_PickedSurf571, internal
__PickedSurf571_SNEG, SNEG
*Elset, elset=__PickedSurf572_S3, internal, instance=OPAL325_GIfiller-1
138,  139,  690,  735,  947,  960,  976,  998, 1083, 1129, 1132, 1172, 1395, 1416, 1504, 1546
1550, 1559, 1573, 1601, 1612, 1632, 1637, 1663, 1670, 1675, 1700, 1701, 1702, 1727, 1735, 1740
1742, 1751, 1756, 1759, 1765, 1775, 1781, 1789, 1796, 1809, 1825, 1826, 1833, 1840, 1842, 1855
1866, 1872, 1876, 1915, 1920, 1921, 1923, 1955, 1956, 1968, 1989, 2037, 2116, 2158, 2166, 2270
2334, 2336, 2337, 2383, 2385, 2386, 2387, 2417, 2464, 2468, 2539, 2558, 2675, 2676, 2678, 2829
2831, 2902, 2978, 3009, 3011, 3017, 3020, 3021, 3022, 3025, 3029, 3038, 3050, 3056, 3079, 3080
3081, 3088, 3100, 3103, 3111, 3115, 3116, 3127, 3206, 3247, 3294, 3297, 3303, 3304, 3306, 3319
3340, 3342, 3347, 3363, 3365, 3451, 3537, 3545, 3554, 3563, 3565, 3574, 3585, 3590, 3594, 3597
*Elset, elset=__PickedSurf572_S2, internal, instance=OPAL325_GIfiller-1
462, 1055, 1635, 1651, 1788, 1828, 1854, 2391, 2830, 3049, 3318, 3343, 3572, 3591, 3595, 3596
*Elset, elset=__PickedSurf572_S1, internal, instance=OPAL325_GIfiller-1
1164, 1178, 2919, 3538
*Elset, elset=__PickedSurf572_S4, internal, instance=OPAL325_GIfiller-1
1779, 1890, 2052, 2538, 2741, 3012, 3055, 3101, 3126, 3314, 3448
*Surface, type=ELEMENT, name=_PickedSurf572, internal
__PickedSurf572_S3, S3
__PickedSurf572_S2, S2
__PickedSurf572_S4, S4
__PickedSurf572_S1, S1
*Elset, elset=__PickedSurf583_SPOS, internal, instance=OPAL325_LA-1, generate
486,  602,    1
*Elset, elset=__PickedSurf583_SNEG, internal, instance=OPAL325_LA-1, generate
486,  742,    1
*Surface, type=ELEMENT, name=_PickedSurf583, internal
__PickedSurf583_SPOS, SPOS
__PickedSurf583_SNEG, SNEG
*Elset, elset=__PickedSurf587_SNEG, internal, instance=OPAL325_LA-1
1,   2,   3,   4,   5,   6,   7,   8,   9,  10,  11,  12,  13,  14,  15,  16
17,  18,  19,  20,  21,  22,  23,  24,  25,  26,  27,  28,  29,  30,  31,  32
33,  34,  35,  36,  37,  38,  39,  40,  41,  42,  43,  44,  45,  46,  47,  48
49,  50,  51,  52,  53,  54,  55,  56,  57,  58,  59,  60,  61,  62,  63,  64
65,  66,  67,  68,  69,  70,  71,  72,  73,  74,  75,  76,  77,  78,  79,  80
81,  82,  83,  84,  85,  86,  87,  88,  89,  90,  91,  92,  93,  94,  95,  96
97,  98,  99, 100, 101, 102, 103, 104, 105, 106, 107, 108, 109, 110, 111, 112
113, 114, 115, 116, 117, 118, 119, 120, 121, 122, 123, 124, 125, 126, 127, 128
129, 130, 131, 132, 133, 134, 135, 136, 137, 138, 139, 140, 141, 142, 143, 144
145, 146, 147, 148, 149, 150, 151, 152, 153, 154, 155, 156, 157, 158, 159, 160
161, 162, 163, 164, 165, 166, 167, 168, 169, 170, 171, 172, 173, 174, 175, 176
177, 178, 179, 180, 181, 182, 183, 184, 185, 186, 187, 188, 189, 190, 191, 192
193, 194, 195, 196, 197, 198, 199, 200, 201, 202, 203, 204, 205, 206, 207, 208
209, 210, 211, 212, 213, 214, 215, 216, 217, 218, 219, 220, 221, 222, 223, 224
225, 226, 227, 228, 229, 230, 231, 232, 233, 234, 235, 236, 237, 238, 239, 240
241, 242, 243, 244, 245, 246, 247, 248, 249, 250, 251, 252, 253, 254, 255, 256
257, 258, 259, 260, 261, 262, 263, 264, 265, 266, 267, 268, 269, 270, 271, 272
273, 274, 275, 276, 277, 278, 279, 280, 281, 282, 283, 284, 285, 286, 287, 288
289, 290, 291, 292, 293, 294, 295, 296, 297, 298, 299, 300, 301, 302, 303, 304
305, 306, 307, 308, 309, 310, 311, 312, 313, 314, 315, 316, 317, 318, 319, 320
** ... 13 like lines cut
*Surface, type=ELEMENT, name=_PickedSurf587, internal
__PickedSurf587_SNEG, SNEG
*Elset, elset=__PickedSurf591_SPOS, internal, instance=OPAL325_LA-1
385,  386,  387,  388,  389,  390,  391,  392,  393,  394,  395,  396,  397,  398,  399,  400
401,  402,  403,  404,  405,  406,  407,  408,  409,  410,  411,  412,  413,  414,  415,  416
417,  418,  419,  420,  421,  422,  423,  424,  425,  426,  427,  428,  429,  430,  431,  432
433,  434,  435,  436,  437,  438,  439,  440,  441,  442,  443,  444,  445,  446,  447,  448
449,  450,  451,  452,  453,  454,  455,  456,  457,  458,  459,  460,  461,  462,  463,  464
465,  466,  467,  468,  469,  470,  471,  472,  473,  474,  475,  476,  477,  478,  479,  480
481,  482,  483,  484,  485,  486,  487,  488,  489,  490,  491,  492,  493,  494,  495,  496
497,  498,  499,  500,  501,  502,  503,  504,  505,  506,  507,  508,  509,  510,  511,  512
513,  514,  515,  516,  517,  518,  519,  520,  521,  522,  523,  524,  525,  526,  527,  528
529,  530,  531,  532,  533,  534,  535,  536,  537,  538,  539,  540,  541,  542,  543,  544
545,  546,  547,  548,  549,  550,  551,  552,  553,  554,  555,  556,  557,  558,  559,  560
561,  562,  563,  564,  565,  566,  567,  568,  569,  570,  571,  572,  573,  574,  575,  576
577,  578,  579,  580,  581,  582,  583,  584,  585,  586,  587,  588,  589,  590,  591,  592
593,  594,  595,  596,  597,  598,  599,  600,  601,  602,  743,  744,  745,  746,  747,  748
749,  750,  751,  752,  753,  754,  755,  756,  757,  758,  759,  760,  761,  762,  763,  764
765,  766,  767,  768,  769,  770,  771,  772,  773,  774,  775,  776,  777,  778,  779,  780
781,  782,  783,  784,  785,  786,  787,  788,  789,  790,  791,  792,  793,  794,  795,  796
797,  798,  799,  800,  801,  802,  803,  804,  805,  806,  807,  808,  809,  810,  811,  812
813,  814,  815,  816,  817,  818,  819,  820,  821,  822,  823,  824,  825,  826,  827,  828
829,  830,  831,  832,  833,  834,  835,  836,  837,  838,  839,  840,  841,  842,  843,  844
** ... 23 like lines cut
*Surface, type=ELEMENT, name=_PickedSurf591, internal
__PickedSurf591_SPOS, SPOS
*Elset, elset=__PickedSurf644_SNEG, internal, instance=OPAL325_AVW_v6-1, generate
1,  238,    1
*Surface, type=ELEMENT, name=_PickedSurf644, internal
__PickedSurf644_SNEG, SNEG
*Elset, elset=__PickedSurf645_S3, internal, instance=OPAL325_GIfiller-1
21,   28,   73,  102,  122,  140,  152,  206,  226,  237,  259,  281,  313,  319,  323,  332
347,  359,  366,  380,  385,  413,  437,  471,  505,  506,  511,  542,  587,  598,  628,  630
633,  665,  687,  705,  709,  760,  800,  813,  845,  848,  851,  861,  881,  916,  950,  977
1016, 1018, 1033, 1043, 1065, 1089, 1098, 1131, 1169, 1180, 1215, 1230, 1257, 1262, 1272, 1279
1326, 1331, 1392, 1431, 1463, 1490, 1495, 1496, 1509, 1525, 1530, 1531, 1535, 1536, 1543, 1545
1551, 1554, 1555, 1556, 1572, 1587, 1593, 1594, 1596, 1597, 1598, 1603, 1610, 1613, 1615, 1618
1619, 1634, 1636, 1641, 1650, 1658, 1662, 1679, 1680, 1712, 1720, 1724, 1725, 1726, 1732, 1741
1748, 1749, 1773, 1780, 1783, 1813, 1819, 1831, 1832, 1834, 1838, 1852, 1853, 1859, 1863, 1868
1869, 1875, 1885, 1898, 1902, 1904, 1914, 1918, 1919, 1925, 1946, 1953, 1957, 1958, 1971, 1972
1973, 1974, 1980, 1982, 1986, 1987, 1995, 1996, 2002, 2003, 2015, 2027, 2028, 2031, 2033, 2036
2041, 2042, 2046, 2054, 2055, 2057, 2058, 2059, 2062, 2066, 2069, 2072, 2078, 2079, 2088, 2090
2095, 2097, 2105, 2110, 2113, 2117, 2119, 2126, 2128, 2135, 2146, 2149, 2152, 2153, 2156, 2157
2159, 2162, 2169, 2170, 2171, 2176, 2177, 2179, 2194, 2200, 2201, 2202, 2203, 2206, 2217, 2218
2220, 2221, 2232, 2234, 2238, 2239, 2240, 2241, 2242, 2243, 2246, 2247, 2256, 2262, 2263, 2266
2267, 2271, 2272, 2275, 2287, 2289, 2300, 2302, 2321, 2326, 2329, 2331, 2342, 2343, 2346, 2347
2350, 2362, 2368, 2392, 2396, 2398, 2399, 2410, 2412, 2415, 2419, 2420, 2424, 2425, 2444, 2474
2475, 2482, 2485, 2489, 2497, 2499, 2505, 2506, 2512, 2518, 2526, 2535, 2536, 2537, 2540, 2544
2549, 2560, 2561, 2562, 2563, 2565, 2567, 2568, 2583, 2589, 2590, 2592, 2593, 2597, 2598, 2599
2600, 2607, 2608, 2610, 2611, 2612, 2613, 2620, 2623, 2625, 2631, 2641, 2647, 2653, 2658, 2670
2672, 2673, 2677, 2687, 2693, 2704, 2709, 2720, 2731, 2732, 2750, 2752, 2755, 2759, 2773, 2775
** ... 15 like lines cut
*Elset, elset=__PickedSurf645_S4, internal, instance=OPAL325_GIfiller-1
242,  265,  322,  325,  605,  615,  840,  879, 1164, 1284, 1537, 1811, 1857, 1963, 2026, 2085
2104, 2122, 2130, 2335, 2374, 2405, 2448, 2524, 2621, 2648, 2684, 2697, 2699, 2786, 2788, 2800
2830, 2851, 2861, 2880, 2904, 2920, 3050, 3165, 3290, 3296, 3332, 3363, 3409, 3460, 3538, 3587
3591,
*Elset, elset=__PickedSurf645_S2, internal, instance=OPAL325_GIfiller-1
15,  403,  917, 1130, 1552, 2034, 2084, 2154, 2182, 2209, 2210, 2371, 2502, 2538, 2586, 2634
2882, 2938, 2967, 2982, 2989, 3104, 3146, 3147, 3229, 3293, 3295, 3307, 3323, 3401, 3419, 3435
3445, 3447, 3457, 3491, 3499, 3502, 3528, 3532, 3536, 3547, 3571
*Elset, elset=__PickedSurf645_S1, internal, instance=OPAL325_GIfiller-1
46,  462,  723,  853, 1039, 1045, 1051, 1055, 1226, 1577, 1632, 1701, 1731, 1779, 1814, 1854
2355, 2386, 2391, 2437, 2741, 2845, 3061, 3122, 3128, 3136, 3288, 3312, 3314, 3354, 3421, 3448
3480, 3508, 3544, 3572, 3596
*Surface, type=ELEMENT, name=_PickedSurf645, internal
__PickedSurf645_S3, S3
__PickedSurf645_S4, S4
__PickedSurf645_S2, S2
__PickedSurf645_S1, S1
*Elset, elset=__PickedSurf646_SPOS, internal, instance=OPAL325_LA-1, generate
1,  1203,     1
*Surface, type=ELEMENT, name=_PickedSurf646, internal
__PickedSurf646_SPOS, SPOS
*Elset, elset=__PickedSurf647_S3, internal, instance=OPAL325_GIfiller-1
21,   28,   73,  102,  122,  140,  152,  206,  226,  237,  259,  281,  313,  319,  323,  332
347,  359,  366,  380,  385,  413,  437,  471,  505,  506,  511,  542,  587,  598,  628,  630
633,  665,  687,  705,  709,  760,  800,  813,  845,  848,  851,  861,  881,  916,  950,  977
1016, 1018, 1033, 1043, 1065, 1089, 1098, 1131, 1169, 1180, 1215, 1230, 1257, 1262, 1272, 1279
1326, 1331, 1392, 1431, 1463, 1490, 1495, 1496, 1509, 1525, 1530, 1531, 1535, 1536, 1543, 1545
1551, 1554, 1555, 1556, 1572, 1587, 1593, 1594, 1596, 1597, 1598, 1603, 1610, 1613, 1615, 1618
1619, 1634, 1636, 1641, 1650, 1658, 1662, 1679, 1680, 1712, 1720, 1724, 1725, 1726, 1732, 1741
1748, 1749, 1773, 1780, 1783, 1813, 1819, 1831, 1832, 1834, 1838, 1852, 1853, 1859, 1863, 1868
1869, 1875, 1885, 1898, 1902, 1904, 1914, 1918, 1919, 1925, 1946, 1953, 1957, 1958, 1971, 1972
1973, 1974, 1980, 1982, 1986, 1987, 1995, 1996, 2002, 2003, 2015, 2027, 2028, 2031, 2033, 2036
2041, 2042, 2046, 2054, 2055, 2057, 2058, 2059, 2062, 2066, 2069, 2072, 2078, 2079, 2088, 2090
2095, 2097, 2105, 2110, 2113, 2117, 2119, 2126, 2128, 2135, 2146, 2149, 2152, 2153, 2156, 2157
2159, 2162, 2169, 2170, 2171, 2176, 2177, 2179, 2194, 2200, 2201, 2202, 2203, 2206, 2217, 2218
2220, 2221, 2232, 2234, 2238, 2239, 2240, 2241, 2242, 2243, 2246, 2247, 2256, 2262, 2263, 2266
2267, 2271, 2272, 2275, 2287, 2289, 2300, 2302, 2321, 2326, 2329, 2331, 2342, 2343, 2346, 2347
2350, 2362, 2368, 2392, 2396, 2398, 2399, 2410, 2412, 2415, 2419, 2420, 2424, 2425, 2444, 2474
2475, 2482, 2485, 2489, 2497, 2499, 2505, 2506, 2512, 2518, 2526, 2535, 2536, 2537, 2540, 2544
2549, 2560, 2561, 2562, 2563, 2565, 2567, 2568, 2583, 2589, 2590, 2592, 2593, 2597, 2598, 2599
2600, 2607, 2608, 2610, 2611, 2612, 2613, 2620, 2623, 2625, 2631, 2641, 2647, 2653, 2658, 2670
2672, 2673, 2677, 2687, 2693, 2704, 2709, 2720, 2731, 2732, 2750, 2752, 2755, 2759, 2773, 2775
** ... 15 like lines cut
*Elset, elset=__PickedSurf647_S4, internal, instance=OPAL325_GIfiller-1
242,  265,  322,  325,  605,  615,  840,  879, 1164, 1284, 1537, 1811, 1857, 1963, 2026, 2085
2104, 2122, 2130, 2335, 2374, 2405, 2448, 2524, 2621, 2648, 2684, 2697, 2699, 2786, 2788, 2800
2830, 2851, 2861, 2880, 2904, 2920, 3050, 3165, 3290, 3296, 3332, 3363, 3409, 3460, 3538, 3587
3591,
*Elset, elset=__PickedSurf647_S2, internal, instance=OPAL325_GIfiller-1
15,  403,  917, 1130, 1552, 2034, 2084, 2154, 2182, 2209, 2210, 2371, 2502, 2538, 2586, 2634
2882, 2938, 2967, 2982, 2989, 3104, 3146, 3147, 3229, 3293, 3295, 3307, 3323, 3401, 3419, 3435
3445, 3447, 3457, 3491, 3499, 3502, 3528, 3532, 3536, 3547, 3571
*Elset, elset=__PickedSurf647_S1, internal, instance=OPAL325_GIfiller-1
46,  462,  723,  853, 1039, 1045, 1051, 1055, 1226, 1577, 1632, 1701, 1731, 1779, 1814, 1854
2355, 2386, 2391, 2437, 2741, 2845, 3061, 3122, 3128, 3136, 3288, 3312, 3314, 3354, 3421, 3448
3480, 3508, 3544, 3572, 3596
*Surface, type=ELEMENT, name=_PickedSurf647, internal
__PickedSurf647_S3, S3
__PickedSurf647_S4, S4
__PickedSurf647_S2, S2
__PickedSurf647_S1, S1
*Elset, elset=__PickedSurf648_SPOS, internal, instance=OPAL325_AVW_v6-1, generate
1,  238,    1
*Surface, type=ELEMENT, name=_PickedSurf648, internal
__PickedSurf648_SPOS, SPOS
*Surface, type=NODE, name=_PickedSet597_CNS_, internal
_PickedSet597, 1.
*Surface, type=NODE, name=_PickedSet596_CNS_, internal
_PickedSet596, 1.
*Surface, type=NODE, name=_PickedSet585_CNS_, internal
_PickedSet585, 1.
*Surface, type=NODE, name=_PickedSet637_CNS_, internal
_PickedSet637, 1.
*Surface, type=NODE, name=_PickedSet638_CNS_, internal
_PickedSet638, 1.
*Orientation, name="Datum csys-1"
1.,           0.,           0.,           0.,           1.,           0.
1, 0.
** Constraint: ATLA-N_LA-tie
*Tie, name=ATLA-N_LA-tie, adjust=no, position tolerance=40., type=NODE TO SURFACE
_PickedSet597_CNS_, _PickedSurf591
** Constraint: ATLA_D_LA-tie
*Tie, name=ATLA_D_LA-tie, adjust=no, position tolerance=40., type=NODE TO SURFACE
_PickedSet596_CNS_, _PickedSurf587
** Constraint: PBody-LA-Tie
*Tie, name=PBody-LA-Tie, adjust=no, position tolerance=20., type=NODE TO SURFACE
_PickedSet585_CNS_, _PickedSurf583
** Constraint: PM-PBody
*Tie, name=PM-PBody, adjust=no
_PickedSet638_CNS_, _PickedSet637_CNS_
** Constraint: Refplane
**Display Body, instance=OPAL325_refPlane_0318_2011-1
*End Assembly
*Amplitude, name=AMP-1, definition=SMOOTH STEP
0.,              0.,             0.1,            0.33,             0.2,            0.61,             0.3,            0.83
0.4,            0.96,             0.5,              1.
*Amplitude, name=AMP-2, time=TOTAL TIME
0.,              0.,            0.05,            0.08,             0.1,            0.15,            0.15,            0.23
0.2,             0.3,            0.25,            0.38,             0.3,            0.45,            0.35,            0.52
0.4,            0.58,            0.45,            0.64,             0.5,             0.7,            0.55,            0.76
0.6,             0.8,            0.65,            0.85,             0.7,            0.89,            0.75,            0.92
0.8,            0.95,            0.85,            0.97,             0.9,            0.99,              1.,              1.
*Amplitude, name=AMP-3
0.,              0.,           0.025,            0.08,            0.05,            0.15,           0.075,            0.23
0.1,             0.3,           0.125,            0.38,            0.15,            0.45,           0.175,            0.52
0.2,            0.58,           0.225,            0.64,            0.25,             0.7,           0.275,            0.76
0.3,             0.8,           0.325,            0.85,            0.35,            0.89,           0.375,            0.92
0.4,            0.95,           0.425,            0.97,            0.45,            0.99,             0.5,              1.
*Amplitude, name=AMP-4
0.,              0.,          0.0125,            0.08,           0.025,            0.15,          0.0375,            0.23
0.05,             0.3,          0.0625,            0.38,           0.075,            0.45,          0.0875,            0.52
0.1,            0.58,          0.1125,            0.64,           0.125,             0.7,          0.1375,            0.76
0.15,             0.8,          0.1625,            0.85,           0.175,            0.89,          0.1875,            0.92
0.2,            0.95,          0.2125,            0.97,           0.225,            0.99,            0.25,              1.
*Amplitude, name="active contraction"
0.,              0.,            0.05,              0.,             0.1,              0.,            0.15,              0.
0.2,              0.,            0.25,              0.,             0.3,              0.,            0.35,              0.
0.4,              0.,            0.45,              0.,             0.5,              0.,            0.55,            0.76
0.6,             0.8,            0.65,            0.85,             0.7,            0.89,            0.75,            0.92
0.8,            0.95,            0.85,            0.97,             0.9,            0.99,              1.,              1.
*Amplitude, name="active contraction-all time"
0.,              0.,            0.05,            0.08,             0.1,            0.15,            0.15,            0.23
0.2,             0.3,            0.25,            0.38,             0.3,            0.45,            0.35,            0.52
0.4,            0.58,            0.45,            0.64,             0.5,             0.7,            0.55,            0.76
0.6,             0.8,            0.65,            0.85,             0.7,            0.89,            0.75,            0.92
0.8,            0.95,            0.85,            0.97,             0.9,            0.99,              1.,              1.
*Amplitude, name="smooth step", definition=SMOOTH STEP
0.,              0.,            0.05,            0.08,             0.1,            0.15,            0.15,            0.23
0.2,             0.3,            0.25,            0.38,             0.3,            0.45,            0.35,            0.52
0.4,            0.58,            0.45,            0.64,             0.5,             0.7,            0.55,            0.76
0.6,             0.8,            0.65,            0.85,             0.7,            0.89,            0.75,            0.92
0.8,            0.95,            0.85,            0.97,             0.9,            0.99,              1.,              1.
**
** MATERIALS
**
*Material, name=CL_Analog
*Density
 9e-07,
*Hyperelastic, n=2, test data input
*Uniaxial Test Data
0, 0.001
0.02, 0.1
0.04, 0.2
0.08916834703051274, 0.3
0.16070304429408583, 0.4
0.25386902176851883, 0.5
0.37520733331785805, 0.6
0.5332369730719747, 0.7
0.7390529818590323, 0.8
1.0071054155030068, 0.9
1.3562138608948964, 1.0
1e-05, -0.1
1e-05, -0.2
1e-05, -0.3
1e-05, -0.4
1e-05, -0.5
1e-05, -0.6
1e-05, -0.7
1e-05, -0.8
1e-05, -0.9
*Material, name=US_Analog
*Density
 9e-07,
*Hyperelastic, n=2, test data input
*Uniaxial Test Data
0, 0.001
0.02, 0.1
0.04, 0.2
0.06, 0.3
0.08, 0.4
0.11703117304562893, 0.5
0.16703288782436265, 0.6
0.22443363362303706, 0.7
0.2903282869520645, 0.8
0.3659737376136258, 0.9
0.4528128648475191, 1.0
1e-05, -0.1
1e-05, -0.2
1e-05, -0.3
1e-05, -0.4
1e-05, -0.5
1e-05, -0.6
1e-05, -0.7
1e-05, -0.8
1e-05, -0.9
*Material, name=PCM_Hyper_Analog
*Density
 1.1e-06,
*Hyperelastic, n=2, test data input
*Uniaxial Test Data
0.0138501, 0.1
0.0318666, 0.2
0.055303, 0.3
0.0857897, 0.4
0.125448, 0.5
0.17703600000000003, 0.6
0.244143, 0.7
0.331437, 0.8
0.444993, 0.9
0.592708, 1.0
*Material, name=PARAVAG_H_Analog
*Density
 9e-07,
*Hyperelastic, n=2, test data input
*Uniaxial Test Data
0, 0.001
0.02, 0.1
0.04, 0.2
0.08916834703051274, 0.3
0.16070304429408583, 0.4
0.25386902176851883, 0.5
0.37520733331785805, 0.6
0.5332369730719747, 0.7
0.7390529818590323, 0.8
1.0071054155030068, 0.9
1.3562138608948964, 1.0
1e-05, -0.1
1e-05, -0.2
1e-05, -0.3
1e-05, -0.4
1e-05, -0.5
1e-05, -0.6
1e-05, -0.7
1e-05, -0.8
1e-05, -0.9
*Material, name=AVW_HYPER_Analog
*Density
 1.1e-06,
*Hyperelastic, n=2, test data input
*Uniaxial Test Data
0.0138501, 0.1
0.0318666, 0.2
0.055303, 0.3
0.0857897, 0.4
0.125448, 0.5
0.17703600000000003, 0.6
0.244143, 0.7
0.331437, 0.8
0.444993, 0.9
0.592708, 1.0
1e-05, -0.1
1e-05, -0.2
1e-05, -0.3
1e-05, -0.4
1e-05, -0.5
1e-05, -0.6
1e-05, -0.7
1e-05, -0.8
1e-05, -0.9
*Material, name=ICM_HYPER_Analog
*Density
 1.1e-06,
*Hyperelastic, n=2, test data input
*Uniaxial Test Data
0.0138501, 0.1
0.0318666, 0.2
0.055303, 0.3
0.0857897, 0.4
0.125448, 0.5
0.17703600000000003, 0.6
0.244143, 0.7
0.331437, 0.8
0.444993, 0.9
0.592708, 1.0
*Material, name=PRM_HYPER_Analog
*Density
 1.1e-06,
*Hyperelastic, n=2, test data input
*Uniaxial Test Data
0.0138501, 0.1
0.0318666, 0.2
0.055303, 0.3
0.0857897, 0.4
0.125448, 0.5
0.17703600000000003, 0.6
0.244143, 0.7
0.331437, 0.8
0.444993, 0.9
0.592708, 1.0
*Material, name=Pbody_Analog
*Density
 9e-07,
*Hyperelastic, n=2, test data input
*Uniaxial Test Data
0.0268578, 0.1
0.00268578, 0.2
0.0055405, 0.3
0.00857478, 0.4
0.0117999, 0.5
0.0152279, 0.6
0.0188715, 0.7
0.0227443, 0.8
0.0268606, 0.9
0.0312359, 1.0
*Material, name=PM_mid_Analog
*Density
 9e-07,
*Hyperelastic, n=2, test data input
*Uniaxial Test Data
0.0268578, 0.1
0.00268578, 0.2
0.0055405, 0.3
0.00857478, 0.4
0.0117999, 0.5
0.0152279, 0.6
0.0188715, 0.7
0.0227443, 0.8
0.0268606, 0.9
0.0312359, 1.0
*Material, name=PARAVAG_dis_HYPER_Analog
*Density
 1.1e-05,
*Hyperelastic, n=2, test data input
*Uniaxial Test Data
0.1, 0.1
3.18666, 0.2
5.5303, 0.3
8.57895, 0.4
12.5448, 0.5
17.7036, 0.6
24.414300000000004, 0.7
33.1437, 0.8
44.49929999999999, 0.9
59.271, 1.0
*Material, name=AWP_dis_HYPER_highdensity_Analog
*Density
 1.1e-04,
*Hyperelastic, n=2, test data input
*Uniaxial Test Data
0.1, 0.1
3.18666, 0.2
5.5303, 0.3
8.57895, 0.4
12.5448, 0.5
17.7036, 0.6
24.414300000000004, 0.7
33.1437, 0.8
44.49929999999999, 0.9
59.271, 1.0
*Material, name=ATFP_HYPER
*Density
1.1e-05,
*Hyperelastic, n=2, test data input
*Uniaxial Test Data
1.38501, 0.1
3.18666, 0.2
5.5303, 0.3
8.57895, 0.4
12.5448, 0.5
17.7036, 0.6
24.4143, 0.7
33.1437, 0.8
44.4993, 0.9
59.271,  1.
*Material, name=ATFP_HYPER_highdesity
*Density
0.00011,
*Hyperelastic, n=2, test data input
*Uniaxial Test Data
1.38501, 0.1
3.18666, 0.2
5.5303, 0.3
8.57895, 0.4
12.5448, 0.5
17.7036, 0.6
24.4143, 0.7
33.1437, 0.8
44.4993, 0.9
59.271,  1.
*Material, name=AVW_HYPER
*Density
1.1e-06,
*Hyperelastic, n=2, test data input
*Uniaxial Test Data
0.0138501, 0.1
0.0318666, 0.2
0.055303, 0.3
0.0857897, 0.4
0.125448, 0.5
0.177036, 0.6
0.244143, 0.7
0.331437, 0.8
0.444993, 0.9
0.592708,  1.
*Material, name="AVW_HYPER20_low density"
*Density
1.1e-07,
*Hyperelastic, n=2, test data input
*Uniaxial Test Data
0.00138501, 0.1
0.00318666, 0.2
0.0055303, 0.3
0.00857897, 0.4
0.0125448, 0.5
0.0177036, 0.6
0.0244143, 0.7
0.0331437, 0.8
0.0444993, 0.9
0.0592708,  1.
*Material, name=CLUS_H1
*Density
9e-07,
*Hyperelastic, n=2, test data input
*Uniaxial Test Data
2.68578e-05,  0.1
5.5405e-05,  0.2
8.57477e-05,  0.3
0.000117999,  0.4
0.000152279,  0.5
0.000188715,  0.6
0.000227443,  0.7
0.000268606,  0.8
0.000312359,  0.9
0.000358864,   1.
-1e-06, -0.1
-1e-06, -0.2
-1e-06, -0.3
-1e-06, -0.4
-1e-06, -0.5
-1e-06, -0.6
-1e-06, -0.7
-1e-06, -0.8
-1e-06, -0.9
*Material, name=CLUS_H5
*Density
9e-07,
*Hyperelastic, n=2, test data input
*Uniaxial Test Data
0.000134289, 0.1
0.000277025, 0.2
0.000428739, 0.3
0.000589995, 0.4
0.000761395, 0.5
0.000943575, 0.6
0.00113722, 0.7
0.00134303, 0.8
0.00156179, 0.9
0.00179432,  1.
*Material, name=CLUS_H10
*Density
9e-07,
*Hyperelastic, n=2, test data input
*Uniaxial Test Data
0.000268578,  0.1
0.00055405,  0.2
0.000857477,  0.3
0.00117999,  0.4
0.00152279,  0.5
0.00188715,  0.6
0.00227443,  0.7
0.00268606,  0.8
0.00312359,  0.9
0.00358864,   1.

*Material, name=CLUS_H50
*Density
9e-07,
*Hyperelastic, n=2, test data input
*Uniaxial Test Data
0.00134289, 0.1
0.00277025, 0.2
0.00428739, 0.3
0.00589995, 0.4
0.00761395, 0.5
0.00943575, 0.6
0.0113721, 0.7
0.0134303, 0.8
0.015618, 0.9
0.0179432,  1.
*Material, name=CLUS_H100
*Density
9e-07,
*Hyperelastic, n=2, test data input
*Uniaxial Test Data
0.00268578,  0.1
0.0055405,  0.2
0.00857477,  0.3
0.0117999,  0.4
0.0152279,  0.5
0.0188715,  0.6
0.0227443,  0.7
0.0268606,  0.8
0.0312359,  0.9
0.0358864,   1.
1e-05, -0.1
1e-05, -0.2
1e-05, -0.3
1e-05, -0.4
1e-05, -0.5
1e-05, -0.6
1e-05, -0.7
1e-05, -0.8
1e-05, -0.9
*Material, name=PARAVAG_H
*Density
9e-07,
*Hyperelastic, n=2, test data input
*Uniaxial Test Data
0.00268578,  0.1
0.000268578,  0.2
0.00055405,  0.3
0.000857478,  0.4
0.00117999,  0.5
0.00152279,  0.6
0.00188715,  0.7
0.00227443,  0.8
0.00268606,  0.9
0.00312359,   1.
1e-05, -0.1
1e-05, -0.2
1e-05, -0.3
1e-05, -0.4
1e-05, -0.5
1e-05, -0.6
1e-05, -0.7
1e-05, -0.8
1e-05, -0.9
*Material, name=PARAVAG_H_highdensity
*Density
9e-07,
*Hyperelastic, n=2, test data input
*Uniaxial Test Data
0.0268578,  0.1
0.00268578,  0.2
0.0055405,  0.3
0.00857478,  0.4
0.0117999,  0.5
0.0152279,  0.6
0.0188715,  0.7
0.0227443,  0.8
0.0268606,  0.9
0.0312359,   1.
1e-05, -0.1
1e-05, -0.2
1e-05, -0.3
1e-05, -0.4
1e-05, -0.5
1e-05, -0.6
1e-05, -0.7
1e-05, -0.8
1e-05, -0.9
*Material, name=PCM_HYPER10
*Density
1.1e-06,
*Hyperelastic, n=2, test data input
*Uniaxial Test Data
0.0014, 0.1
0.0032, 0.2
0.0055, 0.3
0.0086, 0.4
0.0125, 0.5
0.0177, 0.6
0.0244, 0.7
0.0331, 0.8
0.0445, 0.9
0.06,  1.
*Material, name=PCM_HYPER20
*Density
1.1e-06,
*Hyperelastic, n=2, test data input
*Uniaxial Test Data
0.00277002, 0.1
0.00637332, 0.2
0.0110606, 0.3
0.0171579, 0.4
0.0250896, 0.5
0.0354072, 0.6
0.0488286, 0.7
0.0662874, 0.8
0.0889986, 0.9
0.118542,  1.
*Material, name=PCM_HYPER40
*Density
1.1e-06,
*Hyperelastic, n=2, test data input
*Uniaxial Test Data
0.00554004, 0.1
0.0127466, 0.2
0.0221212, 0.3
0.0343159, 0.4
0.0501792, 0.5
0.0708144, 0.6
0.0976572, 0.7
0.132575, 0.8
0.177997, 0.9
0.237083,  1.
*Material, name=PCM_HYPER60
*Density
1.1e-06,
*Hyperelastic, n=2, test data input
*Uniaxial Test Data
0.00831006, 0.1
0.01912, 0.2
0.0331818, 0.3
0.0514738, 0.4
0.0752688, 0.5
0.106222, 0.6
0.146486, 0.7
0.198862, 0.8
0.266996, 0.9
0.355625,  1.
*Material, name=PCM_HYPER80
*Density
1.1e-06,
*Hyperelastic, n=2, test data input
*Uniaxial Test Data
0.0110801, 0.1
0.0254933, 0.2
0.0442424, 0.3
0.0686318, 0.4
0.100358, 0.5
0.141629, 0.6
0.195314, 0.7
0.26515, 0.8
0.355994, 0.9
0.474166,  1.
*Material, name=PCM_HYPER100
*Density
1.1e-06,
*Hyperelastic, n=2, test data input
*Uniaxial Test Data
0.0138501, 0.1
0.0318666, 0.2
0.055303, 0.3
0.0857897, 0.4
0.125448, 0.5
0.177036, 0.6
0.244143, 0.7
0.331437, 0.8
0.444993, 0.9
0.592708,  1.
*Material, name=PCM_HYPER300
*Density
1.1e-06,
*Hyperelastic, n=2, test data input
*Uniaxial Test Data
0.0415503, 0.1
0.0955998, 0.2
0.165909, 0.3
0.257369, 0.4
0.376344, 0.5
0.531108, 0.6
0.732429, 0.7
0.994311, 0.8
1.33498, 0.9
1.77812,  1.
**
** INTERACTION PROPERTIES
**
*Surface Interaction, name=frictionless
*Friction
0.,
*Surface Interaction, name=Penalty
*Friction
1.,
*Surface Interaction, name=rough
*Friction, rough
**
** BOUNDARY CONDITIONS
**
** Name: ATFP_Fix Type: Symmetry/Antisymmetry/Encastre
*Boundary
_PickedSet545, PINNED
** Name: ATFPbackends Type: Symmetry/Antisymmetry/Encastre
*Boundary
_PickedSet487, PINNED
** Name: ATLA_Fix Type: Symmetry/Antisymmetry/Encastre
*Boundary
_PickedSet586, PINNED
** Name: CL&US Type: Symmetry/Antisymmetry/Encastre
*Boundary
_PickedSet542, PINNED
** Name: LA-PBfix Type: Symmetry/Antisymmetry/Encastre
*Boundary
_PickedSet576, PINNED
** Name: LAposterior Type: Symmetry/Antisymmetry/Encastre
*Boundary
_PickedSet575, PINNED
** Name: PM Type: Displacement/Rotation
*Boundary
_PickedSet639, 1, 1
_PickedSet639, 2, 2
_PickedSet639, 3, 3
_PickedSet639, 4, 4
_PickedSet639, 5, 5
_PickedSet639, 6, 6
**
** INTERACTIONS
**
** Interaction: Self-Contact
*Contact, op=NEW
*Contact Inclusions, ALL EXTERIOR
*Contact Property Assignment
,  , frictionless
** ----------------------------------------------------------------
**
** STEP: Step-1
**
*Step, name=Step-1, nlgeom=YES
*Dynamic, Explicit
, 1.,, 0.1
*Bulk Viscosity
0.06, 1.2
**
** BOUNDARY CONDITIONS
**
** Name: LA-PM Type: Symmetry/Antisymmetry/Encastre
*Boundary
_PickedSet582, PINNED
**
** LOADS
**
** Name: pressure   Type: Pressure
*Dsload, amplitude="smooth step"
_PickedSurf648, P, 0.01
** Name: traction   Type: Surface traction
*Dsload, amplitude=AMP-4, orientation="Datum csys-1"
_PickedSurf544, TRVEC, 5e-05, 0., 0., -1.
**
** INTERACTIONS
**
** Interaction: AVW-Filler-Contact
*Contact Pair, interaction=frictionless, mechanical constraint=KINEMATIC, cpset=AVW-Filler-Contact
_PickedSurf644, _PickedSurf645
** Interaction: Filler-LA-Contact
*Contact Pair, interaction=Penalty, mechanical constraint=KINEMATIC, cpset=Filler-LA-Contact
_PickedSurf646, _PickedSurf647
** Interaction: Filler-PBody
*Contact Pair, interaction=rough, mechanical constraint=KINEMATIC, cpset=Filler-PBody
_PickedSurf571, _PickedSurf572
**
** OUTPUT REQUESTS
**
*Restart, write, number interval=1, time marks=NO
**
** FIELD OUTPUT: F-Output-1
**
*Output, field, number interval=10
*Node Output
A, COORD, RF, U, V
*Element Output, directions=YES
ELEDEN, ELEN, ENER, EVOL, LE, S
**
** HISTORY OUTPUT: AVWOut
**
*Output, history
*Node Output, nset=AVW
U1, U2, U3
**
** HISTORY OUTPUT: H-Output-1
**
*Output, history, variable=PRESELECT
*End Step
