*Heading
** Job name: bilateral_test Model name: model1
** Generated by: Abaqus/CAE 2016
*Preprint, echo=NO, model=NO, history=NO, contact=NO
**
** PARTS
**
*Part, name=OPAL325_ATFP
*Node
      1,   18.4495735,   8.87388229,  -22.5602055
      2,   51.7812004,  -30.5793228,   22.1485519
      3,  -25.8520317,   11.9009781,  -22.4409065
      4,  -67.3580933,    -29.51054,     22.39851
      5,   18.7712936,   8.52146053,  -22.4077053
      6,    19.087204,   8.16783428,  -22.2461185
      7,   19.3970432,   7.81318045,  -22.0752926
      8,   19.7005444,   7.45769215,  -21.8950825
      9,   19.9974442,   7.10157537,   -21.705368
     10,   20.2874775,   6.74505234,  -21.5060387
     11,    20.570385,   6.38835812,  -21.2970142
     12,   20.8459148,   6.03174257,   -21.078228
     13,   21.1138229,   5.67546558,  -20.8496437
     14,   21.3738766,   5.31979895,   -20.611248
     15,   21.6258545,   4.96502399,  -20.3630543
     16,   21.8695564,   4.61142731,  -20.1051064
     17,   22.1047955,   4.25930119,   -19.837471
     18,   22.3314075,   3.90894175,  -19.5602493
     19,   22.5492516,   3.56064248,  -19.2735615
     20,   22.7582111,   3.21469665,   -18.977562
** ... 286 like lines cut
*Element, type=T3D2
  1,   1,   5
  2,   5,   6
  3,   6,   7
  4,   7,   8
  5,   8,   9
  6,   9,  10
  7,  10,  11
  8,  11,  12
  9,  12,  13
 10,  13,  14
 11,  14,  15
 12,  15,  16
 13,  16,  17
 14,  17,  18
 15,  18,  19
 16,  19,  20
 17,  20,  21
 18,  21,  22
 19,  22,  23
 20,  23,  24
** ... 284 like lines cut
*Nset, nset=_PickedSet5, internal, generate
   1,  306,    1
*Elset, elset=_PickedSet5, internal, generate
   1,  304,    1
*Nset, nset=_PickedSet7, internal, generate
   1,  306,    1
*Elset, elset=_PickedSet7, internal, generate
   1,  304,    1
** Section: ATPF-wire
*Solid Section, elset=_PickedSet5, material=ATFP_HYPER
1.,
*Nonstructural Mass, elset=_PickedSet7, units=TOTAL MASS
0.005, 
*End Part
**  
*Part, name=OPAL325_ATLA
*Node
      1,   -30.368988,  -8.03931236,  -27.3604107
      2,  -58.2790375,  -30.6023216,   22.4525356
      3,    24.368988,  -8.03931236,  -27.3604107
      4,   52.2790375,  -30.6023216,   22.4525356
      5,  -30.4060116,  -8.00886536,  -27.2726879
      6,  -30.4429817,  -7.97864485,   -27.184864
      7,  -30.4798985,  -7.94865179,  -27.0969391
      8,  -30.5167618,  -7.91888714,  -27.0089149
      9,  -30.5535698,  -7.88935137,  -26.9207897
     10,  -30.5903244,  -7.86004543,  -26.8325653
     11,  -30.6270218,  -7.83096981,  -26.7442417
     12,  -30.6636658,  -7.80212593,  -26.6558189
     13,  -30.7002525,  -7.77351427,   -26.567297
     14,  -30.7367859,  -7.74513531,  -26.4786777
     15,  -30.7732601,  -7.71698999,  -26.3899612
     16,   -30.809679,  -7.68907976,  -26.3011475
     17,  -30.8460407,  -7.66140509,  -26.2122364
     18,  -30.8823452,  -7.63396597,    -26.12323
     19,  -30.9185925,  -7.60676384,  -26.0341263
     20,  -30.9547806,  -7.57979965,  -25.9449272
** ... 1304 like lines cut
*Element, type=T3D2
  1,   1,   5
  2,   5,   6
  3,   6,   7
  4,   7,   8
  5,   8,   9
  6,   9,  10
  7,  10,  11
  8,  11,  12
  9,  12,  13
 10,  13,  14
 11,  14,  15
 12,  15,  16
 13,  16,  17
 14,  17,  18
 15,  18,  19
 16,  19,  20
 17,  20,  21
 18,  21,  22
 19,  22,  23
 20,  23,  24
** ... 1302 like lines cut
*Nset, nset=_PickedSet4, internal, generate
    1,  1324,     1
*Elset, elset=_PickedSet4, internal, generate
    1,  1322,     1
*Nset, nset=_PickedSet5, internal, generate
    1,  1324,     1
*Elset, elset=_PickedSet5, internal, generate
    1,  1322,     1
** Section: ATPF-wire
*Solid Section, elset=_PickedSet5, material=ATFP_HYPER
1.,
*Nonstructural Mass, elset=_PickedSet4, units=TOTAL MASS
0.005, 
*End Part
**  
*Part, name=OPAL325_AVW_v6
*Node
      1,   22.9393787,  -9.06633091,   11.6914644
      2,   -23.477602,   -9.2332077,   13.4487724
      3,   -24.198782,  -9.97588921,   19.6851139
      4,   21.9448528,  -11.2704992,   17.7938232
      5,   23.0112114,   -7.6095047,    7.1879549
      6,  -22.4749889,  -8.37930965,   8.14969349
      7,   22.5130825,  -6.58313417,   3.69639874
      8,  -21.6816502,  -7.06960106,   3.65984368
      9,   20.9049683,  -5.36190224, -0.678462505
     10,  -21.2367229,  -3.73497581,  -2.06031227
     11,    19.053463,  -3.84398389,  -4.96597242
     12,   -20.843029, -0.473626733,  -6.08968401
     13,   17.6541882,  -1.83392072,  -10.2631245
     14,  -20.4862919,   2.19752336,  -10.2206936
     15,   17.1224346, -0.398663163,  -15.1348381
     16,  -20.4879246,   3.49093962,  -14.8158693
     17,   16.7474861,  0.185905933,  -19.0676594
     18,   -20.442667,   3.23201036,  -19.5576878
     19,   16.0693512,  0.141683429,  -22.2858181
     20,   -20.214426,   2.15900683,  -23.3048115
** ... 289 like lines cut
*Element, type=S4R
 1,   4,  58, 193,  57
 2,  58,   1,  27, 193
 3, 190,  29,  30, 191
 4, 191,  54,  55, 190
 5,  31,  32,  53, 188
 6,  33, 196,  51,  52
 7, 189,  47,  48, 186
 8,  42,   3,  43, 183
 9,   2,  42, 183,  41
10,  36,  37, 189, 186
11, 184,  39,  40, 185
12,  41, 183, 185,  40
13, 183,  43,  44, 185
14, 185,  44,  45, 184
15,  38,  39, 184, 192
16, 192,  46,  47, 189
17, 192, 189,  37,  38
18,  36, 186, 194,  35
19, 195,  34,  35, 194
20,  32,  33,  52,  53
** ... 257 like lines cut
*Node
    310,           0.,           0.,           0.
*Nset, nset=_PickedSet13, internal, generate
   1,  309,    1
*Elset, elset=_PickedSet13, internal, generate
   1,  277,    1
*Nset, nset=_PickedSet33, internal
  19,  20,  21,  22,  23,  24,  25,  26, 165, 166, 167, 168, 169, 170, 171, 172
 173, 174, 175, 176, 177, 178, 179, 180, 181, 182, 301, 302, 303, 304, 305, 306
 307, 308, 309
*Elset, elset=_PickedSet33, internal, generate
 257,  277,    1
*Nset, nset=_PickedSet34, internal
   1,   2,   3,   4,   5,   6,   7,   8,   9,  10,  11,  12,  13,  14,  15,  16
  17,  18,  19,  20,  27,  28,  29,  30,  31,  32,  33,  34,  35,  36,  37,  38
  39,  40,  41,  42,  43,  44,  45,  46,  47,  48,  49,  50,  51,  52,  53,  54
  55,  56,  57,  58,  59,  60,  61,  62,  63,  64,  65,  66,  67,  68,  69,  70
  71,  72,  73,  74,  75,  76,  77,  78,  79,  80,  81,  82,  83,  84,  85,  86
  87,  88,  89,  90,  91,  92,  93,  94,  95,  96,  97,  98,  99, 100, 101, 102
 103, 104, 105, 106, 107, 108, 109, 110, 111, 112, 113, 114, 115, 116, 117, 118
 119, 120, 121, 122, 123, 124, 125, 126, 127, 128, 129, 130, 131, 132, 133, 134
 135, 136, 137, 138, 139, 140, 141, 142, 143, 144, 145, 146, 147, 148, 149, 150
 151, 152, 153, 154, 155, 156, 157, 158, 159, 160, 161, 162, 163, 164, 165, 166
 167, 168, 169, 170, 171, 172, 173, 174, 175, 176, 183, 184, 185, 186, 187, 188
 189, 190, 191, 192, 193, 194, 195, 196, 197, 198, 199, 200, 201, 202, 203, 204
 205, 206, 207, 208, 209, 210, 211, 212, 213, 214, 215, 216, 217, 218, 219, 220
 221, 222, 223, 224, 225, 226, 227, 228, 229, 230, 231, 232, 233, 234, 235, 236
 237, 238, 239, 240, 241, 242, 243, 244, 245, 246, 247, 248, 249, 250, 251, 252
 253, 254, 255, 256, 257, 258, 259, 260, 261, 262, 263, 264, 265, 266, 267, 268
 269, 270, 271, 272, 273, 274, 275, 276, 277, 278, 279, 280, 281, 282, 283, 284
 285, 286, 287, 288, 289, 290, 291, 292, 293, 294, 295, 296, 297, 298, 299, 300
*Elset, elset=_PickedSet34, internal, generate
   1,  256,    1
** Section: AWP
*Shell Section, elset=_PickedSet34, material=AVW_HYPER_Analog, offset=SPOS
2., 5
** Section: AWP_dis
*Shell Section, elset=_PickedSet33, material=ATFP_HYPER_highdesity, offset=SPOS
2., 5
*Nonstructural Mass, elset=_PickedSet13, units=TOTAL MASS
0.02, 
*End Part
**  
*Part, name=OPAL325_CL_v6
*Node
      1,   -23.477602,   -9.2332077,   13.4487724
      2,  -51.6031265,  -20.0011997,          66.
      3,  -21.4883194,  -7.00388479,   3.66301107
      4,  -54.3323517,  -20.0011997,          66.
      5,  -20.8467903, -0.495841533,  -6.06241083
      6,  -56.5408401,  -20.0011997,          66.
      7,    48.057724,  -20.0011997,   60.6057892
      8,   22.9393787,  -9.06633091,   11.6914644
      9,   48.7779503,  -20.0011997,   61.1147537
     10,   22.5130825,  -6.58313417,   3.69639874
     11,         49.5,  -20.0011997,       61.625
     12,    19.053463,  -3.84398389,  -4.96597242
     13,   49.1636162,  -19.9960423,   61.3710022
     14,   20.9049683,  -5.36190224, -0.678462505
     15,   48.3391304,  -20.0011997,   60.8046494
     16,   23.0112114,   -7.6095047,    7.1879549
     17,       47.625,  -20.0011997,   60.2999992
     18,   21.9448528,  -11.2704992,   17.7938232
     19,  -21.2140045,  -3.74090409,  -2.05388594
     20,  -55.4875565,  -20.0011997,          66.
** ... 1965 like lines cut
*Element, type=T3D2
  1,   1,  25
  2,  25,  26
  3,  26,  27
  4,  27,  28
  5,  28,  29
  6,  29,  30
  7,  30,  31
  8,  31,  32
  9,  32,  33
 10,  33,  34
 11,  34,  35
 12,  35,  36
 13,  36,  37
 14,  37,  38
 15,  38,  39
 16,  39,  40
 17,  40,  41
 18,  41,  42
 19,  42,  43
 20,  43,  44
** ... 1953 like lines cut
*Nset, nset=_PickedSet4, internal, generate
  1,  24,   1
*Nset, nset=_PickedSet5, internal, generate
    1,  1985,     1
*Elset, elset=_PickedSet5, internal, generate
    1,  1973,     1
** Section: CL-wire
*Solid Section, elset=_PickedSet5, material=CL_Analog
1.,

*Element, type=ROTARYI, elset=_PickedSet4_Inertia-1_ROTI_
1998, 1
1999, 2
2000, 3
2001, 4
2002, 5
2003, 6
2004, 7
2005, 8
2006, 9
2007, 10
2008, 11
2009, 12
2010, 13
2011, 14
2012, 15
2013, 16
2014, 17
2015, 18
2016, 19
2017, 20
** ... 4 like lines cut
*Rotary Inertia, elset=_PickedSet4_Inertia-1_ROTI_
0.0001, 0.0001, 0.0001, 0., 0., 0.
*End Part
**  
*Part, name=OPAL325_GIfiller
*Node
      1,  -7.93228674,   -35.195816,  -27.0964336
      2,  -16.4990864,  -17.8722572,    -28.77948
      3,  -2.62768674,  -4.50489998,   -26.784605
      4,    4.9058032,  -24.5665417,  -30.0038586
      5,  -21.5331478,  -22.3838005,   18.6409359
      6,  -3.43130612,  -6.86383057,   17.3961926
      7,   17.3414059,  -31.4333191,   17.5004292
      8,   8.03583813,  -22.1369267,  -2.90359759
      9,   7.63522387,  -21.1313019,  -8.43594646
     10,   1.71738851,  -54.1832848,     18.09202
     11,  -9.86287498,  -33.6239395,  -28.5790081
     12,  -10.7680483,  -31.1173019,  -29.7851124
     13,  -11.5237875,  -28.3398342,  -30.3539696
     14,   -12.629674,  -25.6211166,  -30.3709259
     15,  -13.9538126,  -23.0186081,  -30.0343933
     16,  -15.2804556,  -20.4535408,  -29.4830132
     17,  -17.5412006,  -15.2121534,   -27.948164
     18,  -18.3042774,  -12.4756603,  -27.0664673
     19,  -18.6166019,  -9.61247063,   -26.341444
     20,  -18.1473103,  -6.70286322,  -26.1272507
** ... 2303 like lines cut
*Element, type=C3D4
    1,  986,  987,  988,  989
    2,  989,  987,  990,  986
    3,  986,  991,  992,  993
    4,  986,  994,  995,  996
    5,  986,  997,  987,  994
    6,  986,  988,  987,  998
    7,  997,  999, 1000, 1001
    8,  997, 1002, 1003, 1004
    9,  997,  994, 1005, 1006
   10,  997, 1001, 1000, 1003
   11, 1007, 1008,  999, 1009
   12, 1010, 1008,  999, 1007
   13,  999, 1011, 1008, 1012
   14,  999, 1012, 1013, 1014
   15,  996,  999, 1011,  998
   16, 1015,  999, 1016, 1009
   17, 1017, 1000, 1014, 1001
   18, 1000, 1014, 1001,  999
   19, 1018, 1019, 1020, 1021
   20, 1022,   19, 1023, 1024
** ... 10758 like lines cut
*Nset, nset=_PickedSet5, internal, generate
    1,  2323,     1
*Elset, elset=_PickedSet5, internal, generate
     1,  10778,      1
*Nset, nset=_PickedSet6, internal, generate
    1,  2323,     1
*Elset, elset=_PickedSet6, internal, generate
     1,  10778,      1
** Section: VAGFiller
*Solid Section, elset=_PickedSet6, material="AVW_HYPER20_low density"
1.,
*Nonstructural Mass, elset=_PickedSet5, units=TOTAL MASS
0.2, 
*End Part
**  
*Part, name=OPAL325_LA
*Node
      1,  -36.6839371,   -7.2040391,  -8.14486504
      2,  -4.92375469,   -34.765419,  -8.21006584
      3,  0.760177374,     -65.6362,   13.2096138
      4,  -58.2790375,  -30.6023216,   22.4525356
      5,   30.4978333,  -7.05634546,  -8.79311275
      6,   52.2790375,  -30.6023216,   22.4525356
      7,  -6.54543877,  -36.2710686,  -26.7928829
      8,   3.04314852,  -26.8095379,  -30.6507816
      9,   17.1672745,  -14.3407011,  -28.2140675
     10,    24.368988,  -8.03931236,  -27.3604107
     11,  -31.2722244,  -8.07486916,  -26.5514297
     12,  -22.9350929,  -13.1273718,  -27.6387081
     13,  -12.9724951,  -26.3499622,   -31.477356
     14,   -33.679554,  -7.94303751,  -8.16734505
     15,   -30.769949,  -8.97590828,  -8.18634605
     16,  -28.1842804,  -10.6701937,  -8.19645214
     17,  -25.3619385,  -11.9166298,  -8.21274853
     18,  -22.7404041,  -13.3304243,  -8.22564888
     19,  -21.0593529,   -15.797226,  -8.22029877
     20,  -19.7056866,   -18.474411,  -8.20995903
** ... 1002 like lines cut
*Element, type=S3R
 1, 186, 200, 174
 2, 252, 263, 264
 3, 460, 232, 227
 4, 353, 436, 204
 5, 245, 258, 246
 6, 215, 241, 216
 7, 258, 290, 289
 8, 263, 262, 283
 9, 333, 379, 391
10, 447, 419, 195
11, 490, 480, 336
364, 563, 588, 781
365, 765, 747, 683
366, 744, 619, 665
367, 533, 732, 720
368, 597, 596, 586
369, 673, 614, 672
370, 711, 695, 701
371, 756, 698, 624
372, 699, 656, 698
** ... 9 like lines cut
*Element, type=S4R
 12, 172,  78,   1,  14
 13, 172, 414, 424, 173
 14, 213, 398, 486, 223
 15, 224, 213, 223, 233
 16, 347, 225, 397, 445
 17, 226, 453, 457, 231
 18, 438, 226, 231, 452
 19, 409,  59,  60, 423
 20, 207, 202, 208, 399
 21, 202, 206, 209, 208
 22, 469, 444, 187, 200
 23, 173, 174,  76,  77
 24, 186, 174, 173, 424
 25, 173,  77,  78, 172
 26, 172,  14,  15, 414
 27, 424, 414, 201, 467
 28, 403, 402, 355, 410
 29, 209, 354, 402, 401
 30, 209, 401, 400, 208
 31,  55, 229, 257,  54
** ... 926 like lines cut
*Nset, nset=_PickedSet22, internal, generate
    1,  1022,     1
*Elset, elset=_PickedSet22, internal, generate
   1,  975,    1
*Nset, nset=_PickedSet23, internal
   1,   2,   3,   4,   5,   6,  14,  15,  16,  17,  18,  19,  20,  21,  22,  23
  24,  25,  26,  27,  28,  29,  30,  31,  32,  33,  34,  35,  36,  37,  38,  39
  40,  41,  42,  43,  44,  45,  46,  47,  48,  49,  50,  51,  52,  53,  54,  55
  56,  57,  58,  59,  60,  61,  62,  63,  64,  65,  66,  67,  68,  69,  70,  71
  72,  73,  74,  75,  76,  77,  78,  79,  80,  81,  82,  83,  84,  85,  86,  87
  88,  89,  90,  91,  92,  93,  94,  95,  96,  97,  98,  99, 100, 101, 102, 103
 104, 105, 106, 107, 108, 109, 110, 111, 112, 113, 114, 115, 116, 117, 118, 119
 120, 121, 122, 123, 124, 125, 126, 127, 170, 171, 172, 173, 174, 175, 176, 177
 178, 179, 180, 181, 182, 183, 184, 185, 186, 187, 188, 189, 190, 191, 192, 193
 194, 195, 196, 197, 198, 199, 200, 201, 202, 203, 204, 205, 206, 207, 208, 209
 210, 211, 212, 213, 214, 215, 216, 217, 218, 219, 220, 221, 222, 223, 224, 225
 226, 227, 228, 229, 230, 231, 232, 233, 234, 235, 236, 237, 238, 239, 240, 241
 242, 243, 244, 245, 246, 247, 248, 249, 250, 251, 252, 253, 254, 255, 256, 257
 258, 259, 260, 261, 262, 263, 264, 265, 266, 267, 268, 269, 270, 271, 272, 273
 274, 275, 276, 277, 278, 279, 280, 281, 282, 283, 284, 285, 286, 287, 288, 289
 290, 291, 292, 293, 294, 295, 296, 297, 298, 299, 300, 301, 302, 303, 304, 305
 306, 307, 308, 309, 310, 311, 312, 313, 314, 315, 316, 317, 318, 319, 320, 321
 322, 323, 324, 325, 326, 327, 328, 329, 330, 331, 332, 333, 334, 335, 336, 337
 338, 339, 340, 341, 342, 343, 344, 345, 346, 347, 348, 349, 350, 351, 352, 353
 354, 355, 356, 357, 358, 359, 360, 361, 362, 363, 364, 365, 366, 367, 368, 369
** ... 28 like lines cut
*Elset, elset=_PickedSet23, internal, generate
   1,  719,    1
*Nset, nset=_PickedSet24, internal
    1,    2,    5,    7,    8,    9,   10,   11,   12,   13,   14,   15,   16,   17,   18,   19
   20,   21,   22,   23,   24,   25,   26,   27,   79,   80,   81,   82,   83,   84,   85,   86
   87,   88,   89,   90,   91,   92,  128,  129,  130,  131,  132,  133,  134,  135,  136,  137
  138,  139,  140,  141,  142,  143,  144,  145,  146,  147,  148,  149,  150,  151,  152,  153
  154,  155,  156,  157,  158,  159,  160,  161,  162,  163,  164,  165,  166,  167,  168,  169
  812,  813,  814,  815,  816,  817,  818,  819,  820,  821,  822,  823,  824,  825,  826,  827
  828,  829,  830,  831,  832,  833,  834,  835,  836,  837,  838,  839,  840,  841,  842,  843
  844,  845,  846,  847,  848,  849,  850,  851,  852,  853,  854,  855,  856,  857,  858,  859
  860,  861,  862,  863,  864,  865,  866,  867,  868,  869,  870,  871,  872,  873,  874,  875
  876,  877,  878,  879,  880,  881,  882,  883,  884,  885,  886,  887,  888,  889,  890,  891
  892,  893,  894,  895,  896,  897,  898,  899,  900,  901,  902,  903,  904,  905,  906,  907
  908,  909,  910,  911,  912,  913,  914,  915,  916,  917,  918,  919,  920,  921,  922,  923
  924,  925,  926,  927,  928,  929,  930,  931,  932,  933,  934,  935,  936,  937,  938,  939
  940,  941,  942,  943,  944,  945,  946,  947,  948,  949,  950,  951,  952,  953,  954,  955
  956,  957,  958,  959,  960,  961,  962,  963,  964,  965,  966,  967,  968,  969,  970,  971
  972,  973,  974,  975,  976,  977,  978,  979,  980,  981,  982,  983,  984,  985,  986,  987
  988,  989,  990,  991,  992,  993,  994,  995,  996,  997,  998,  999, 1000, 1001, 1002, 1003
 1004, 1005, 1006, 1007, 1008, 1009, 1010, 1011, 1012, 1013, 1014, 1015, 1016, 1017, 1018, 1019
 1020, 1021, 1022
*Elset, elset=_PickedSet24, internal, generate
 720,  975,    1
** Section: ICM
*Shell Section, elset=_PickedSet23, material=PCM_HYPER100
2., 5
** Section: PRM
*Shell Section, elset=_PickedSet24, material=PCM_Hyper_Analog
2., 5
*Nonstructural Mass, elset=_PickedSet22, units=MASS PER VOLUME
1.1e-06, 
*End Part
**  
*Part, name=OPAL325_PBody
*Node
      1,  -20.3608704,  -11.5973272,  -27.5258484
      2,  -17.6837025,  -10.1817579,   -27.574913
      3,  -14.8633299,  -9.09634686,   -27.753231
      4,  -11.9174662,  -8.45877361,  -28.0333595
      5,  -8.91317654,  -8.19529152,  -28.3158455
      6,  -5.89232826,  -8.15237617,  -28.5415897
      7,  -2.87043905,  -8.28369617,  -28.7149448
      8,  0.142898634,  -8.57318592,  -28.8387012
      9,   3.13881969,  -9.01851559,  -28.9117107
     10,    6.1064353,  -9.62813854,  -28.9293442
     11,   9.02974033,  -10.4217129,  -28.8829384
     12,   14.6153593,  -12.7174492,  -28.5318356
     13,   -22.925766,   -13.208663,   -27.582962
     14,   17.1321373,  -14.3578625,  -28.1668987
     15,   14.7610111,  -16.4336281,  -28.5831032
     16,   12.3950434,  -18.5171776,  -28.9897289
     17,    10.032629,  -20.6055813,  -29.3920956
     18,    7.7141366,  -22.6616631,  -29.7843761
     19,   5.39826202,  -24.7211838,   -30.174057
     20,   3.08481622,  -26.7838726,  -30.5614204
** ... 59 like lines cut
*Element, type=S3R
1, 62, 63, 45
2, 77, 43, 34
3, 79, 68, 78
*Element, type=S4R
 4,  1, 71, 32, 13
 5, 33, 70, 12, 42
 6, 42, 15, 16, 48
 7, 46, 47, 61, 50
 8, 63, 62, 69, 75
 9, 29, 63, 75, 28
10, 63, 29, 30, 45
11, 41, 62, 45, 74
12, 51, 37, 36, 52
13, 10, 34, 35,  9
14, 77, 33, 44, 43
15,  3, 40, 72,  2
16, 39,  4,  5, 38
17, 36,  7,  8, 76
18,  9, 35, 76,  8
19, 12, 14, 15, 42
20, 69, 25, 26, 75
21, 26, 27, 28, 75
22, 51, 47, 38, 37
23, 62, 61, 78, 69
** ... 40 like lines cut
*Nset, nset=_PickedSet8, internal, generate
  1,  79,   1
*Elset, elset=_PickedSet8, internal, generate
  1,  63,   1
** Section: PBody
*Shell Section, elset=_PickedSet8, material=PARAVAG_H_highdensity
2., 5
*End Part
**  
*Part, name=OPAL325_PM_mid
*Node
      1,  -56.1416321,  -13.7997379,  -26.7597389
      2,  -50.2331047,  -14.5166149,   -27.078558
      3,  -47.2788429,  -14.8750534,  -27.2379684
      4,  -41.3703156,  -15.5919294,  -27.5567875
      5,  -38.4160538,  -15.9503679,  -27.7161961
      6,  -35.4617882,  -16.3088055,  -27.8756065
      7,  -29.5532627,  -17.0256824,  -28.1944256
      8,  -26.5990009,  -17.3841209,  -28.3538342
      9,  -20.6904736,   -18.100996,  -28.6726532
     10,  -59.0958939,  -13.4413004,  -26.6003304
     11,  -17.7362118,  -18.4594345,  -28.8320618
     12,  -21.1327991,  -14.8844042,  -28.0628548
     13,  -22.8466339,  -13.1046247,  -27.7008095
     14,  -23.6235676,  -10.2495623,  -27.1875725
     15,  -23.0573483,  -7.30712032,  -26.6399994
     16,  -21.9640865,  -4.50414228,  -26.1139164
     17,  -20.6963081,  -1.77115798,  -25.6035385
     18,  -19.4643345,  0.979089797,  -25.0994225
     19,  -18.2538033,   3.74161935,  -24.6117783
     20,   -16.673027,   6.31464148,  -24.1853676
** ... 273 like lines cut
*Element, type=S3R
 1, 219, 213, 218
 2, 279, 223,  37
 3, 287, 221, 225
 4,  97, 106, 261
 5, 291, 289, 126
 6, 281,  23, 155
 7, 159, 164, 160
 8, 206, 201, 205
 9, 272, 270, 271
10, 293, 192, 187
*Element, type=S4R
 11,  80,  10,   1,  89
 12,  95,  89,  88,  94
 13,  94,  88,  87,  93
 14,  93,  87,  86,  92
 15,  92,  86,  85,  91
 16,  91,  85,  84, 106
 17, 234,   7,  90, 257
 18,  90,   7,   8, 278
 19, 270, 272, 235,   9
 20, 278, 272, 271, 274
 21, 252,  14, 109,  96
 22, 109,  14,  15, 114
 23,  15,  16, 119, 114
 24, 124, 119,  16,  17
 25,  17,  18, 128, 124
 26,  26, 165, 163, 237
 27, 163, 159,  25, 237
 28,  30, 176, 173,  29
 29, 177, 178, 276, 175
 30, 184,  57,  58, 181
** ... 217 like lines cut
*Nset, nset=_PickedSet8, internal, generate
   1,  293,    1
*Elset, elset=_PickedSet8, internal, generate
   1,  247,    1
** Section: PBody
*Shell Section, elset=_PickedSet8, material=PARAVAG_H_highdensity
2., 5
*End Part
**  
*Part, name=OPAL325_Para_v6
*Node
      1,  -25.8009739,   11.8042965,  -22.4799175
      2,   -20.843029, -0.473626733,  -6.08968401
      3,  -25.7714252,   11.7532816,  -22.4842796
      4,   -20.214426,   2.15900683,  -23.3048115
      5,  -19.6363258,  0.160134405,  -27.1134644
      6,  -20.2860661,   3.14858842,  -19.5615292
      7,   18.4495735,   8.87388229,  -22.5602055
      8,   19.0809364,  -3.87206864,  -4.89342737
      9,   17.6541882,  -1.83392072,  -10.2631245
     10,   17.1224346, -0.398663163,  -15.1348381
     11,   16.7179661,  0.183552921,  -19.0713673
     12,   15.9324493,  0.172837824,  -22.3192291
     13,   14.2028704, -0.683116853,  -27.2061768
     14,  -25.7050037,   11.6703243,  -22.2305298
     15,  -20.4862919,   2.19752336,  -10.2206936
     16,  -25.8520317,   11.9009781,  -22.4409065
     17,  -20.4873924,   3.48509598,  -14.7648649
     18,  -25.6829281,   11.5119658,   -22.089674
     19,  -25.5648823,   11.2196341,  -21.6994305
     20,  -25.4468346,   10.9273024,  -21.3091869
** ... 315 like lines cut
*Element, type=T3D2
 1,  1, 18
 2, 18, 19
 3, 19, 20
 4, 20, 21
 5, 21, 22
 6, 22, 23
 7, 23, 24
 8, 24, 25
 9, 25, 26
10, 26, 27
11, 27, 28
12, 28, 29
13, 29, 30
14, 30, 31
15, 31, 32
16, 32, 33
17, 33, 34
18, 34, 35
19, 35, 36
20, 36, 37
** ... 312 like lines cut
*Nset, nset=_PickedSet4, internal, generate
  1,  17,   1
*Nset, nset=_PickedSet13, internal
   1,   2,   3,   6,   7,   8,   9,  10,  11,  14,  15,  16,  17,  18,  19,  20
  21,  22,  23,  24,  25,  26,  27,  28,  29,  30,  31,  32,  33,  34,  35,  36
  37,  38,  39,  40,  41,  42,  43,  44,  45,  46,  47,  48,  49,  50,  51,  52
  53,  54,  55,  56,  57,  58, 107, 108, 109, 110, 111, 112, 113, 114, 115, 116
 117, 118, 119, 120, 121, 122, 123, 124, 125, 126, 127, 128, 129, 130, 131, 132
 133, 134, 135, 136, 137, 138, 139, 140, 141, 142, 143, 144, 145, 146, 147, 148
 149, 150, 151, 152, 153, 154, 155, 156, 157, 158, 159, 160, 161, 162, 163, 164
 165, 166, 167, 168, 169, 170, 171, 172, 173, 174, 175, 176, 177, 178, 179, 180
 181, 182, 183, 184, 185, 186, 187, 188, 189, 190, 191, 192, 193, 194, 195, 196
 197, 198, 199, 200, 201, 202, 203, 204, 205, 206, 207, 208, 209, 210, 211, 212
 213, 214, 215, 216, 217, 218, 219, 220, 221, 222, 223, 224, 225, 226, 227, 228
 229, 230, 231, 232, 233, 234, 235, 236, 237, 238, 239, 240, 241, 242, 282, 283
 284, 285, 286, 287, 288, 289, 290, 291, 292, 293, 294, 295, 296, 297, 298, 299
 300, 301, 302, 303, 304, 305, 306, 307, 308, 309, 310, 311, 312, 313, 314, 315
 316, 317, 318, 319, 320, 321, 322, 323, 324, 325, 326, 327, 328, 329, 330, 331
 332, 333, 334, 335
*Elset, elset=_PickedSet13, internal
   1,   2,   3,   4,   5,   6,   7,   8,   9,  10,  11,  12,  13,  14,  15,  16
  17,  18,  19,  20,  21,  22,  23,  24,  25,  26,  27,  28,  29,  30,  31,  32
  33,  34,  35,  36,  37,  38,  39,  40,  41,  42,  94,  95,  96,  97,  98,  99
 100, 101, 102, 103, 104, 105, 106, 107, 108, 109, 110, 111, 112, 113, 114, 115
 116, 117, 118, 119, 120, 121, 122, 123, 124, 125, 126, 127, 128, 129, 130, 131
 132, 133, 134, 135, 136, 137, 138, 139, 140, 141, 142, 143, 144, 145, 146, 147
 148, 149, 150, 151, 152, 153, 154, 155, 156, 157, 158, 159, 160, 161, 162, 163
 164, 165, 166, 167, 168, 169, 170, 171, 172, 173, 174, 175, 176, 177, 178, 179
 180, 181, 182, 183, 184, 185, 186, 187, 188, 189, 190, 191, 192, 193, 194, 195
 196, 197, 198, 199, 200, 201, 202, 203, 204, 205, 206, 207, 208, 209, 210, 211
 212, 213, 214, 215, 216, 217, 218, 219, 220, 221, 222, 223, 224, 225, 226, 227
 228, 229, 230, 231, 232, 233, 234, 276, 277, 278, 279, 280, 281, 282, 283, 284
 285, 286, 287, 288, 289, 290, 291, 292, 293, 294, 295, 296, 297, 298, 299, 300
 301, 302, 303, 304, 305, 306, 307, 308, 309, 310, 311, 312, 313, 314, 315, 316
 317, 318, 319, 320, 321, 322, 323, 324, 325, 326, 327, 328, 329, 330, 331, 332
*Nset, nset=_PickedSet14, internal
   1,   3,   4,   5,   7,  12,  13,  59,  60,  61,  62,  63,  64,  65,  66,  67
  68,  69,  70,  71,  72,  73,  74,  75,  76,  77,  78,  79,  80,  81,  82,  83
  84,  85,  86,  87,  88,  89,  90,  91,  92,  93,  94,  95,  96,  97,  98,  99
 100, 101, 102, 103, 104, 105, 106, 243, 244, 245, 246, 247, 248, 249, 250, 251
 252, 253, 254, 255, 256, 257, 258, 259, 260, 261, 262, 263, 264, 265, 266, 267
 268, 269, 270, 271, 272, 273, 274, 275, 276, 277, 278, 279, 280, 281
*Elset, elset=_PickedSet14, internal
  43,  44,  45,  46,  47,  48,  49,  50,  51,  52,  53,  54,  55,  56,  57,  58
  59,  60,  61,  62,  63,  64,  65,  66,  67,  68,  69,  70,  71,  72,  73,  74
  75,  76,  77,  78,  79,  80,  81,  82,  83,  84,  85,  86,  87,  88,  89,  90
  91,  92,  93, 235, 236, 237, 238, 239, 240, 241, 242, 243, 244, 245, 246, 247
 248, 249, 250, 251, 252, 253, 254, 255, 256, 257, 258, 259, 260, 261, 262, 263
 264, 265, 266, 267, 268, 269, 270, 271, 272, 273, 274, 275
** Section: Para-wire
*Solid Section, elset=_PickedSet13, material=PARAVAG_H_Analog
1.,
** Section: Para-wire-high
*Solid Section, elset=_PickedSet14, material=ATFP_HYPER
1.,
*Element, type=ROTARYI, elset=_PickedSet4_Inertia-1_
333, 1
334, 2
335, 3
336, 4
337, 5
338, 6
339, 7
340, 8
341, 9
342, 10
343, 11
344, 12
345, 13
346, 14
347, 15
348, 16
349, 17
*Rotary Inertia, elset=_PickedSet4_Inertia-1_
0.0001, 0.0001, 0.0001, 0., 0., 0.
*End Part
**  
*Part, name=OPAL325_Refplane_MirrorD_0318_20
*Node
      1,  -59.0958939,  -16.7659016,  -27.1532116
      2,   45.8938828,  -16.7659016,  -29.2860985
      3,   45.8938828,   18.6594009,  -23.3948708
      4,  -59.0958939,   18.6594009,  -21.2619858
      5,  -48.5969162,  -16.7659016,  -27.3665009
      6,  -38.0979385,  -16.7659016,  -27.5797901
      7,  -27.5989609,  -16.7659016,  -27.7930775
      8,  -17.0999832,  -16.7659016,  -28.0063667
      9,  -6.60100555,  -16.7659016,  -28.2196541
     10,   3.89797163,  -16.7659016,  -28.4329433
     11,   14.3969488,  -16.7659016,  -28.6462326
     12,   24.8959274,  -16.7659016,    -28.85952
     13,   35.3949051,  -16.7659016,  -29.0728092
     14,   45.8938828,  -4.95746708,  -27.3223553
     15,   45.8938828,   6.85096741,   -25.358614
     16,   35.3949051,   18.6594009,  -23.1815834
     17,   24.8959274,   18.6594009,  -22.9682941
     18,   14.3969488,   18.6594009,  -22.7550049
     19,   3.89797163,   18.6594009,  -22.5417175
     20,  -6.60100555,   18.6594009,  -22.3284283
** ... 31 like lines cut
*Element, type=S4R
 1, 26, 50, 51, 25
 2, 40, 22, 23, 41
 3, 43, 38, 28, 47
 4, 36, 19, 20, 37
 5, 18, 29, 30, 17
 6, 45, 44, 34, 31
 7, 32, 16, 17, 30
 8, 13,  2, 14, 33
 9, 45, 32, 30, 44
10, 15,  3, 16, 32
11, 34, 44, 46, 35
12, 35, 46, 47, 28
13, 27, 37, 20, 21
14,  8,  9, 28, 38
15, 43, 48, 39, 38
16, 41, 51, 49, 48
17, 25, 51, 24,  4
18, 49, 51, 50, 42
19,  1,  5, 50, 26
20, 38, 39,  7,  8
** ... 17 like lines cut
*End Part
**  
*Part, name=OPAL325_US_v6
*Node
      1,  -23.3392544,  -9.19381237,   13.4449682
      2,  -42.9855118,  -48.8706436,   30.1705265
      3,   22.9780941,  -7.60863209,   7.19995117
      4,   41.3603134,  -43.5253143,    36.219883
      5,   21.9963531,   -11.189353,   17.5794888
      6,   38.2782516,  -43.6821213,     41.80653
      7,   22.7610664,  -9.07034016,   11.7760801
      8,   40.5875053,  -43.5851135,   38.2664413
      9,  -22.5048847,  -8.41003799,   8.29969406
     10,  -46.1745834,   -47.645504,   28.5606918
     11,       -24.25,  -10.0005999,   19.7000008
     12,  -37.7613182,  -49.0136185,   31.9891529
     13,  -23.5057468,  -9.53005695,   13.5867109
     14,  -23.6722412,  -9.86630154,   13.7284527
     15,  -23.8387356,  -10.2025461,   13.8701944
     16,   -24.005228,  -10.5387897,   14.0119362
     17,  -24.1717224,  -10.8750343,   14.1536789
     18,  -24.3382168,  -11.2112789,   14.2954206
     19,  -24.5047092,  -11.5475225,   14.4371624
     20,  -24.6712036,  -11.8837671,   14.5789051
** ... 688 like lines cut
*Element, type=T3D2
  1,   1,  13
  2,  13,  14
  3,  14,  15
  4,  15,  16
  5,  16,  17
  6,  17,  18
  7,  18,  19
  8,  19,  20
  9,  20,  21
 10,  21,  22
 11,  22,  23
 12,  23,  24
 13,  24,  25
 14,  25,  26
 15,  26,  27
 16,  27,  28
 17,  28,  29
 18,  29,  30
 19,  30,  31
 20,  31,  32
** ... 682 like lines cut
*Nset, nset=_PickedSet4, internal, generate
  1,  12,   1
*Nset, nset=_PickedSet5, internal, generate
   1,  708,    1
*Elset, elset=_PickedSet5, internal, generate
   1,  702,    1
** Section: US-wire
*Solid Section, elset=_PickedSet5, material=US_Analog
1.,

*Element, type=ROTARYI, elset=_PickedSet4_Inertia-1_ROTI_
715, 1
716, 2
717, 3
718, 4
719, 5
720, 6
721, 7
722, 8
723, 9
724, 10
725, 11
726, 12
*Rotary Inertia, elset=_PickedSet4_Inertia-1_ROTI_
0.0001, 0.0001, 0.0001, 0., 0., 0.
*End Part
**  
**
** ASSEMBLY
**
*Assembly, name=Assembly
**  
*Instance, name=OPAL325_ATFP-1, part=OPAL325_ATFP
*End Instance
**  
*Instance, name=OPAL325_GIfiller-1, part=OPAL325_GIfiller
*End Instance
**  
*Instance, name=OPAL325_LA-1, part=OPAL325_LA
*End Instance
**  
*Instance, name=OPAL325_ATLA-1, part=OPAL325_ATLA
*End Instance
**  
*Instance, name=OPAL325_CL_v6-1, part=OPAL325_CL_v6
*End Instance
**  
*Instance, name=OPAL325_Para_v6-1, part=OPAL325_Para_v6
*End Instance
**  
*Instance, name=OPAL325_AVW_v6-1, part=OPAL325_AVW_v6
*End Instance
**  
*Instance, name=OPAL325_US_v6-1, part=OPAL325_US_v6
*End Instance
**  
*Instance, name=OPAL325_PBody-1, part=OPAL325_PBody
*End Instance
**  
*Instance, name=OPAL325_PM_mid-1, part=OPAL325_PM_mid
*End Instance
**  
**Instance, name=OPAL325_Refplane_MirrorD_0318_20-1, part=OPAL325_Refplane_MirrorD_0318_20
**End Instance
**  
*Element, type=CONN3D2
1, OPAL325_AVW_v6-1.11, OPAL325_Para_v6-1.8
2, OPAL325_AVW_v6-1.12, OPAL325_Para_v6-1.2
3, OPAL325_AVW_v6-1.14, OPAL325_Para_v6-1.15
4, OPAL325_AVW_v6-1.16, OPAL325_Para_v6-1.17
5, OPAL325_AVW_v6-1.18, OPAL325_Para_v6-1.6
6, OPAL325_AVW_v6-1.20, OPAL325_Para_v6-1.4
7, OPAL325_AVW_v6-1.26, OPAL325_Para_v6-1.5
8, OPAL325_AVW_v6-1.13, OPAL325_Para_v6-1.9
9, OPAL325_AVW_v6-1.15, OPAL325_Para_v6-1.10
10, OPAL325_AVW_v6-1.17, OPAL325_Para_v6-1.11
11, OPAL325_AVW_v6-1.19, OPAL325_Para_v6-1.12
12, OPAL325_AVW_v6-1.21, OPAL325_Para_v6-1.13
*Connector Section, elset=Wire-1-Set-1
Weld,
*Element, type=CONN3D2
13, OPAL325_AVW_v6-1.2, OPAL325_CL_v6-1.1
14, OPAL325_AVW_v6-1.5, OPAL325_CL_v6-1.16
15, OPAL325_US_v6-1.7, OPAL325_AVW_v6-1.1
16, OPAL325_AVW_v6-1.4, OPAL325_CL_v6-1.18
17, OPAL325_US_v6-1.11, OPAL325_AVW_v6-1.3
18, OPAL325_AVW_v6-1.6, OPAL325_US_v6-1.9
19, OPAL325_CL_v6-1.5, OPAL325_AVW_v6-1.12
20, OPAL325_AVW_v6-1.10, OPAL325_CL_v6-1.19
21, OPAL325_CL_v6-1.3, OPAL325_AVW_v6-1.8
22, OPAL325_CL_v6-1.21, OPAL325_AVW_v6-1.6
23, OPAL325_US_v6-1.1, OPAL325_AVW_v6-1.2
24, OPAL325_CL_v6-1.23, OPAL325_AVW_v6-1.3
25, OPAL325_US_v6-1.5, OPAL325_AVW_v6-1.4
26, OPAL325_AVW_v6-1.1, OPAL325_CL_v6-1.8
27, OPAL325_US_v6-1.3, OPAL325_AVW_v6-1.5
28, OPAL325_AVW_v6-1.7, OPAL325_CL_v6-1.10
29, OPAL325_AVW_v6-1.9, OPAL325_CL_v6-1.14
30, OPAL325_AVW_v6-1.11, OPAL325_CL_v6-1.12
*Connector Section, elset=Wire-2-Set-1
Weld,
*Nset, nset=Wire-1-Set-1, instance=OPAL325_AVW_v6-1
 11, 12, 13, 14, 15, 16, 17, 18, 19, 20, 21, 26
*Nset, nset=Wire-1-Set-1, instance=OPAL325_Para_v6-1
  2,  4,  5,  6,  8,  9, 10, 11, 12, 13, 15, 17
*Elset, elset=Wire-1-Set-1, generate
  1,  12,   1
*Nset, nset=Wire-2-Set-1, instance=OPAL325_AVW_v6-1, generate
  1,  12,   1
*Nset, nset=Wire-2-Set-1, instance=OPAL325_CL_v6-1
  1,  3,  5,  8, 10, 12, 14, 16, 18, 19, 21, 23
*Nset, nset=Wire-2-Set-1, instance=OPAL325_US_v6-1, generate
  1,  11,   2
*Elset, elset=Wire-2-Set-1, generate
 13,  30,   1
*Nset, nset=_PickedSet487, internal, instance=OPAL325_ATFP-1
 2, 4
*Nset, nset=_PickedSet487, internal, instance=OPAL325_ATLA-1
 2, 4
*Nset, nset=_PickedSet542, internal, instance=OPAL325_CL_v6-1
  2,  4,  6,  7,  9, 11, 13, 15, 17, 20, 22, 24
*Nset, nset=_PickedSet542, internal, instance=OPAL325_US_v6-1, generate
  2,  12,   2
*Nset, nset=_PickedSet545, internal, instance=OPAL325_ATFP-1
 1, 3
*Nset, nset=_PickedSet545, internal, instance=OPAL325_Para_v6-1
  1,  3,  7, 14, 16
*Elset, elset=_PickedSet545, internal, instance=OPAL325_Para_v6-1
  43, 308
*Nset, nset=_PickedSet586, internal, instance=OPAL325_ATLA-1, generate
 1,  4,  1
*Nset, nset=_PickedSet610, internal, instance=OPAL325_GIfiller-1
 3,
*Nset, nset=_PickedSet612, internal, instance=OPAL325_AVW_v6-1
 22,
*Nset, nset=_PickedSet614, internal, instance=OPAL325_AVW_v6-1
 25,
*Nset, nset=_PickedSet646, internal, instance=OPAL325_ATLA-1
   1,   2,   5,   6,   7,   8,   9,  10,  11,  12,  13,  14,  15,  16,  17,  18
  19,  20,  21,  22,  23,  24,  25,  26,  27,  28,  29,  30,  31,  32,  33,  34
  35,  36,  37,  38,  39,  40,  41,  42,  43,  44,  45,  46,  47,  48,  49,  50
  51,  52,  53,  54,  55,  56,  57,  58,  59,  60,  61,  62,  63,  64,  65,  66
  67,  68,  69,  70,  71,  72,  73,  74,  75,  76,  77,  78,  79,  80,  81,  82
  83,  84,  85,  86,  87,  88,  89,  90,  91,  92,  93,  94,  95,  96,  97,  98
  99, 100, 101, 102, 103, 104, 105, 106, 107, 108, 109, 110, 111, 112, 113, 114
 115, 116, 117, 118, 119, 120, 121, 122, 123, 124, 125, 126, 127, 128, 129, 130
 131, 132, 133, 134, 135, 136, 137, 138, 139, 140, 141, 142, 143, 144, 145, 146
 147, 148, 149, 150, 151, 152, 153, 154, 155, 156, 157, 158, 159, 160, 161, 162
 163, 164, 165, 166, 167, 168, 169, 170, 171, 172, 173, 174, 175, 176, 177, 178
 179, 180, 181, 182, 183, 184, 185, 186, 187, 188, 189, 190, 191, 192, 193, 194
 195, 196, 197, 198, 199, 200, 201, 202, 203, 204, 205, 206, 207, 208, 209, 210
 211, 212, 213, 214, 215, 216, 217, 218, 219, 220, 221, 222, 223, 224, 225, 226
 227, 228, 229, 230, 231, 232, 233, 234, 235, 236, 237, 238, 239, 240, 241, 242
 243, 244, 245, 246, 247, 248, 249, 250, 251, 252, 253, 254, 255, 256, 257, 258
 259, 260, 261, 262, 263, 264, 265, 266, 267, 268, 269, 270, 271, 272, 273, 274
 275, 276, 277, 278, 279, 280, 281, 282, 283, 284, 285, 286, 287, 288, 289, 290
 291, 292, 293, 294, 295, 296, 297, 298, 299, 300, 301, 302, 303, 304, 305, 306
 307, 308, 309, 310, 311, 312, 313, 314, 315, 316, 317, 318, 319, 320, 321, 322
** ... 22 like lines cut
*Elset, elset=_PickedSet646, internal, instance=OPAL325_ATLA-1, generate
   1,  661,    1
*Nset, nset=_PickedSet661, internal, instance=OPAL325_ATLA-1
    3,    4,  665,  666,  667,  668,  669,  670,  671,  672,  673,  674,  675,  676,  677,  678
  679,  680,  681,  682,  683,  684,  685,  686,  687,  688,  689,  690,  691,  692,  693,  694
  695,  696,  697,  698,  699,  700,  701,  702,  703,  704,  705,  706,  707,  708,  709,  710
  711,  712,  713,  714,  715,  716,  717,  718,  719,  720,  721,  722,  723,  724,  725,  726
  727,  728,  729,  730,  731,  732,  733,  734,  735,  736,  737,  738,  739,  740,  741,  742
  743,  744,  745,  746,  747,  748,  749,  750,  751,  752,  753,  754,  755,  756,  757,  758
  759,  760,  761,  762,  763,  764,  765,  766,  767,  768,  769,  770,  771,  772,  773,  774
  775,  776,  777,  778,  779,  780,  781,  782,  783,  784,  785,  786,  787,  788,  789,  790
  791,  792,  793,  794,  795,  796,  797,  798,  799,  800,  801,  802,  803,  804,  805,  806
  807,  808,  809,  810,  811,  812,  813,  814,  815,  816,  817,  818,  819,  820,  821,  822
  823,  824,  825,  826,  827,  828,  829,  830,  831,  832,  833,  834,  835,  836,  837,  838
  839,  840,  841,  842,  843,  844,  845,  846,  847,  848,  849,  850,  851,  852,  853,  854
  855,  856,  857,  858,  859,  860,  861,  862,  863,  864,  865,  866,  867,  868,  869,  870
  871,  872,  873,  874,  875,  876,  877,  878,  879,  880,  881,  882,  883,  884,  885,  886
  887,  888,  889,  890,  891,  892,  893,  894,  895,  896,  897,  898,  899,  900,  901,  902
  903,  904,  905,  906,  907,  908,  909,  910,  911,  912,  913,  914,  915,  916,  917,  918
  919,  920,  921,  922,  923,  924,  925,  926,  927,  928,  929,  930,  931,  932,  933,  934
  935,  936,  937,  938,  939,  940,  941,  942,  943,  944,  945,  946,  947,  948,  949,  950
  951,  952,  953,  954,  955,  956,  957,  958,  959,  960,  961,  962,  963,  964,  965,  966
  967,  968,  969,  970,  971,  972,  973,  974,  975,  976,  977,  978,  979,  980,  981,  982
** ... 22 like lines cut
*Elset, elset=_PickedSet661, internal, instance=OPAL325_ATLA-1, generate
  662,  1322,     1
*Nset, nset=_PickedSet700, internal, instance=OPAL325_LA-1
   8,   9,  12,  13, 139, 140, 141, 142, 143, 160, 161, 162, 163, 164
*Elset, elset=_PickedSet700, internal, instance=OPAL325_LA-1
 763, 764, 789, 790, 812, 833, 859, 906, 907, 908, 946, 947
*Nset, nset=_PickedSet704, internal, instance=OPAL325_LA-1
   3,   4,   6,  42,  43,  44,  45,  46,  47,  48,  49,  50,  51,  52,  53,  54
  55,  56,  57,  58,  59,  60,  61,  62,  63,  64, 107, 108, 109, 110, 111, 112
 113, 114, 115, 116, 117, 118, 119, 120, 121, 122, 123, 124, 125, 126, 127
*Elset, elset=_PickedSet704, internal, instance=OPAL325_LA-1
  19,  31,  32,  33,  39,  40,  94,  95, 100, 104, 125, 126, 140, 153, 155, 156
 173, 180, 227, 295, 305, 330, 332, 339, 375, 397, 398, 399, 434, 435, 509, 510
 511, 512, 513, 514, 516, 518, 573, 596, 620, 626, 658, 675, 688, 705
*Nset, nset=_PickedSet705, internal, instance=OPAL325_PM_mid-1
  10,  49,  50,  51,  52,  53,  54,  55,  56,  57,  58,  59,  60,  61,  62,  63
  64,  65,  66,  67,  68,  69,  70,  71,  72,  73,  74,  75,  76,  77,  78,  79
  80, 241, 242, 243, 244, 245, 246, 247, 248, 249, 250, 251
*Elset, elset=_PickedSet705, internal, instance=OPAL325_PM_mid-1
  11,  30,  31,  44,  46,  55,  88,  89,  90,  99, 100, 101, 102, 104, 108, 109
 110, 120, 124, 125, 126, 127, 128, 133, 134, 135, 136, 137, 138, 139, 141, 153
 192, 195, 196, 202, 205, 206, 209, 210, 214, 218, 228
*Nset, nset=_PickedSet706, internal, instance=OPAL325_PM_mid-1
  11,  12,  13,  37,  38,  39,  40, 236
*Elset, elset=_PickedSet706, internal, instance=OPAL325_PM_mid-1
  41,  42,  81, 169, 230, 243
*Elset, elset=_s_Surf-14_S3, internal, instance=OPAL325_GIfiller-1
    85,    87,   206,   335,   353,   445,   531,   654,   661,   670,   739,   821,   826,   932,  1072,  1087
  1108,  1214,  1244,  1324,  1512,  1543,  1544,  1569,  1570,  1581,  1584,  1588,  1593,  1594,  1599,  1601
  1611,  1618,  1626,  1628,  1647,  1660,  1661,  1664,  1667,  1675,  1676,  1682,  1683,  1693,  1696,  1703
  1718,  1720,  1722,  1724,  1726,  1730,  1731,  1738,  1741,  1746,  1748,  1759,  1760,  1771,  1795,  1803
  1811,  1825,  1832,  1838,  1847,  1848,  1851,  1865,  1874,  1875,  1876,  1879,  1881,  1894,  1897,  1906
  1924,  1929,  1937,  1945,  1947,  1950,  1952,  1955,  1959,  1960,  1974,  1977,  1978,  1984,  1986,  1990
  1991,  1998,  2001,  2009,  2011,  2017,  2037,  2040,  2041,  2047,  2049,  2053,  2059,  2069,  2092,  2094
  2096,  2108,  2109,  2110,  2116,  2117,  2118,  2120,  2121,  2129,  2135,  2140,  2143,  2146,  2149,  2151
  2152,  2161,  2164,  2165,  2167,  2173,  2181,  2185,  2186,  2209,  2211,  2212,  2230,  2232,  2239,  2249
  2250,  2262,  2264,  2272,  2283,  2286,  2300,  2306,  2309,  2314,  2323,  2326,  2328,  2333,  2335,  2336
  2337,  2339,  2346,  2351,  2356,  2359,  2361,  2362,  2363,  2365,  2366,  2367,  2373,  2385,  2386,  2387
  2388,  2398,  2407,  2410,  2424,  2431,  2432,  2435,  2437,  2446,  2447,  2450,  2468,  2472,  2480,  2483
  2484,  2486,  2490,  2493,  2495,  2498,  2517,  2519,  2528,  2531,  2533,  2536,  2542,  2545,  2546,  2547
  2548,  2550,  2555,  2557,  2561,  2570,  2573,  2583,  2587,  2597,  2599,  2602,  2605,  2607,  2609,  2610
  2615,  2616,  2628,  2636,  2637,  2638,  2640,  2641,  2644,  2645,  2648,  2657,  2661,  2662,  2663,  2668
  2672,  2673,  2677,  2683,  2687,  2690,  2691,  2695,  2696,  2698,  2704,  2707,  2708,  2709,  2714,  2716
  2718,  2723,  2731,  2736,  2739,  2749,  2750,  2752,  2756,  2761,  2778,  2785,  2792,  2795,  2802,  2804
  2809,  2812,  2816,  2818,  2819,  2829,  2834,  2840,  2842,  2853,  2855,  2860,  2870,  2871,  2874,  2887
  2890,  2891,  2892,  2897,  2900,  2902,  2915,  2916,  2918,  2921,  2931,  2933,  2934,  2937,  2942,  2946
  2948,  2951,  2952,  2954,  2970,  2971,  2977,  2978,  2979,  2983,  2984,  2988,  2990,  2992,  2996,  2998
** ... 56 like lines cut
*Elset, elset=_s_Surf-14_S1, internal, instance=OPAL325_GIfiller-1
  145,  747, 1648, 1905, 2172, 2520, 2618, 2659, 2780, 2947, 2974, 3119, 3236, 3639, 3977, 4076
 4080, 4141, 4522, 4714, 4729, 4778, 4788, 4790, 4801, 4835, 4995, 5190, 5202, 5210, 5286, 5359
 5457, 5473, 5529, 5530, 5551, 5706, 5967, 6076, 6216, 6567, 7059, 7166, 7375, 7405, 7515, 7578
 7596, 7598, 7606, 7643, 8310, 8837, 8904, 9675
*Elset, elset=_s_Surf-14_S4, internal, instance=OPAL325_GIfiller-1
   728,  1257,  1558,  1699,  1789,  1914,  2106,  2257,  2505,  2511,  2562,  2576,  2822,  2835,  3033,  3089
  3098,  3115,  3128,  3241,  3701,  3888,  3999,  4175,  4234,  4453,  4802,  4817,  5154,  5243,  5256,  5397
  5436,  5590,  5683,  5888,  5902,  6004,  6137,  6155,  6245,  6248,  6347,  6360,  6539,  6562,  6685,  6824
  6841,  6853,  6897,  6916,  6926,  7028,  7075,  7187,  7278,  7400,  7516,  7610,  7615,  7642,  8125,  8269
  8327,  8401,  8501,  8520,  8549,  8661,  8710,  9611, 10341, 10347, 10356, 10417, 10547, 10579, 10717
*Elset, elset=_s_Surf-14_S2, internal, instance=OPAL325_GIfiller-1
  1559,  1598,  1749,  1852,  2010,  2294,  2321,  2433,  2655,  2741,  2824,  2964,  2965,  2966,  3015,  3222
  3338,  3426,  3492,  3516,  3715,  3739,  3841,  3881,  3982,  4041,  4105,  4273,  4449,  4491,  4524,  4530
  4602,  4630,  4765,  4832,  5169,  5290,  5377,  5440,  5509,  5695,  5770,  5846,  5877,  5895,  6029,  6495
  6501,  6552,  6636,  6771,  6857,  6920,  6969,  7033,  7134,  7316,  7420,  7438,  7608,  8721, 10060, 10355
 10458,
*Surface, type=ELEMENT, name=s_Surf-14
_s_Surf-14_S3, S3
_s_Surf-14_S1, S1
_s_Surf-14_S4, S4
_s_Surf-14_S2, S2
*Elset, elset=_s_Surf-15_S3, internal, instance=OPAL325_GIfiller-1
    78,    85,    87,   145,   206,   335,   353,   445,   531,   654,   661,   670,   739,   821,   826,   930
   932,  1072,  1087,  1108,  1178,  1214,  1244,  1324,  1512,  1543,  1544,  1554,  1569,  1570,  1572,  1581
  1582,  1584,  1588,  1593,  1594,  1599,  1601,  1611,  1618,  1626,  1628,  1633,  1642,  1647,  1653,  1657
  1660,  1661,  1664,  1665,  1667,  1669,  1675,  1676,  1682,  1683,  1693,  1696,  1697,  1703,  1718,  1720
  1722,  1724,  1726,  1728,  1730,  1731,  1738,  1741,  1746,  1748,  1759,  1760,  1765,  1771,  1775,  1776
  1783,  1787,  1794,  1795,  1800,  1803,  1806,  1810,  1811,  1825,  1826,  1828,  1832,  1838,  1841,  1847
  1848,  1851,  1852,  1865,  1866,  1874,  1875,  1876,  1879,  1881,  1882,  1885,  1888,  1894,  1897,  1906
  1907,  1913,  1921,  1922,  1923,  1924,  1929,  1932,  1937,  1943,  1945,  1947,  1948,  1950,  1952,  1955
  1958,  1959,  1960,  1967,  1974,  1977,  1978,  1980,  1984,  1986,  1990,  1991,  1994,  1995,  1998,  2000
  2001,  2002,  2008,  2009,  2011,  2012,  2017,  2037,  2040,  2041,  2047,  2048,  2049,  2053,  2059,  2064
  2069,  2080,  2089,  2092,  2094,  2096,  2108,  2109,  2110,  2116,  2117,  2118,  2120,  2121,  2129,  2131
  2135,  2138,  2140,  2143,  2146,  2149,  2151,  2152,  2161,  2163,  2164,  2165,  2167,  2173,  2181,  2184
  2185,  2186,  2201,  2203,  2209,  2211,  2212,  2230,  2232,  2237,  2238,  2239,  2240,  2248,  2249,  2250
  2262,  2264,  2272,  2283,  2286,  2300,  2306,  2309,  2314,  2323,  2326,  2328,  2333,  2335,  2336,  2337
  2339,  2346,  2351,  2356,  2359,  2361,  2362,  2363,  2365,  2366,  2367,  2373,  2378,  2385,  2386,  2387
  2388,  2390,  2398,  2406,  2407,  2410,  2424,  2431,  2432,  2435,  2437,  2446,  2447,  2450,  2468,  2469
  2472,  2477,  2480,  2483,  2484,  2486,  2490,  2492,  2493,  2495,  2498,  2515,  2517,  2519,  2521,  2528
  2531,  2533,  2536,  2542,  2545,  2546,  2547,  2548,  2550,  2555,  2557,  2561,  2570,  2573,  2583,  2587
  2597,  2599,  2602,  2605,  2607,  2609,  2610,  2615,  2616,  2619,  2624,  2626,  2628,  2636,  2637,  2638
  2640,  2641,  2644,  2645,  2648,  2657,  2661,  2662,  2663,  2668,  2672,  2673,  2677,  2683,  2687,  2689
** ... 83 like lines cut
*Elset, elset=_s_Surf-15_S4, internal, instance=OPAL325_GIfiller-1
   728,   747,   776,   891,  1139,  1257,  1429,  1558,  1699,  1789,  1905,  1914,  1929,  1950,  2106,  2257
  2505,  2511,  2518,  2520,  2562,  2576,  2618,  2770,  2822,  2835,  2966,  3033,  3089,  3098,  3115,  3128
  3177,  3241,  3281,  3321,  3348,  3548,  3701,  3810,  3888,  3932,  3999,  4175,  4234,  4453,  4492,  4531
  4711,  4802,  4803,  4817,  4829,  4835,  4840,  4960,  5154,  5243,  5256,  5377,  5397,  5436,  5440,  5590
  5683,  5704,  5775,  5875,  5888,  5902,  6004,  6029,  6137,  6155,  6245,  6248,  6336,  6347,  6360,  6425
  6539,  6562,  6587,  6604,  6605,  6685,  6688,  6771,  6824,  6841,  6853,  6868,  6872,  6873,  6897,  6915
  6916,  6926,  7028,  7075,  7098,  7160,  7164,  7187,  7278,  7329,  7377,  7400,  7457,  7516,  7577,  7594
  7610,  7615,  7642,  8125,  8269,  8327,  8401,  8501,  8520,  8549,  8661,  8710,  8984,  9611, 10105, 10341
 10347, 10356, 10417, 10439, 10547, 10579, 10659, 10717
*Elset, elset=_s_Surf-15_S2, internal, instance=OPAL325_GIfiller-1
   958,  1559,  1598,  1738,  1749,  1771,  1852,  1939,  2010,  2143,  2294,  2321,  2433,  2562,  2655,  2741
  2824,  2964,  2965,  2966,  3015,  3073,  3098,  3102,  3137,  3209,  3222,  3242,  3338,  3426,  3492,  3516
  3715,  3739,  3841,  3879,  3881,  3982,  4041,  4105,  4159,  4168,  4273,  4350,  4396,  4449,  4491,  4522
  4524,  4530,  4602,  4630,  4721,  4765,  4817,  4818,  4832,  5169,  5202,  5290,  5335,  5359,  5377,  5440
  5509,  5695,  5770,  5846,  5877,  5895,  5900,  5956,  5988,  5991,  6029,  6076,  6155,  6248,  6254,  6314
  6360,  6495,  6501,  6552,  6636,  6771,  6857,  6920,  6969,  7033,  7117,  7134,  7158,  7165,  7316,  7335
  7420,  7438,  7522,  7526,  7570,  7608,  7622,  8721, 10060, 10355, 10458
*Elset, elset=_s_Surf-15_S1, internal, instance=OPAL325_GIfiller-1
  145,  747, 1558, 1559, 1598, 1648, 1719, 1749, 1789, 1905, 2172, 2500, 2520, 2618, 2659, 2732
 2780, 2947, 2974, 3033, 3119, 3130, 3141, 3236, 3368, 3639, 3977, 3997, 4076, 4080, 4139, 4141
 4291, 4522, 4714, 4718, 4729, 4778, 4788, 4790, 4801, 4835, 4838, 4839, 4880, 4995, 5190, 5202
 5210, 5286, 5359, 5363, 5417, 5449, 5457, 5473, 5529, 5530, 5551, 5706, 5877, 5884, 5891, 5967
 6076, 6216, 6235, 6567, 6807, 6896, 7049, 7059, 7060, 7166, 7319, 7375, 7405, 7429, 7515, 7578
 7596, 7598, 7606, 7643, 8310, 8661, 8837, 8904, 9277, 9675
*Surface, type=ELEMENT, name=s_Surf-15
_s_Surf-15_S3, S3
_s_Surf-15_S4, S4
_s_Surf-15_S2, S2
_s_Surf-15_S1, S1
*Elset, elset=__PickedSurf544_SPOS, internal, instance=OPAL325_AVW_v6-1, generate
   1,  277,    1
*Surface, type=ELEMENT, name=_PickedSurf544, internal
__PickedSurf544_SPOS, SPOS
*Elset, elset=__PickedSurf555_SNEG, internal, instance=OPAL325_AVW_v6-1, generate
   1,  277,    1
*Surface, type=ELEMENT, name=_PickedSurf555, internal
__PickedSurf555_SNEG, SNEG
*Elset, elset=__PickedSurf560_SPOS, internal, instance=OPAL325_AVW_v6-1, generate
   1,  277,    1
*Surface, type=ELEMENT, name=_PickedSurf560, internal
__PickedSurf560_SPOS, SPOS
*Elset, elset=__PickedSurf653_S3, internal, instance=OPAL325_GIfiller-1
    78,  1554,  1572,  1582,  1633,  1653,  1657,  1665,  1669,  1728,  1765,  1775,  1776,  1783,  1787,  1794
  1800,  1806,  1810,  1826,  1828,  1841,  1852,  1866,  1882,  1885,  1888,  1907,  1913,  1921,  1922,  1923
  1932,  1943,  1948,  1958,  1967,  1980,  1994,  1995,  2000,  2002,  2008,  2012,  2163,  2184,  2201,  2203
  2237,  2238,  2240,  2248,  2492,  2515,  2521,  2768,  2773,  2788,  2908,  2912,  2944,  2960,  3298,  3304
  3310,  3318,  3329,  3336,  3343,  3345,  3347,  3353,  3354,  3355,  3363,  3386,  3394,  3400,  3403,  3404
  3539,  3545,  3555,  3560,  3563,  3568,  3573,  3578,  3750,  3753,  3906,  3945,  4169,  4172,  4173,  4186
  4188,  4189,  4191,  4198,  4201,  4213,  4216,  4233,  4236,  4240,  4241,  4300,  4347,  4370,  4729,  4916
  4928,  4932,  4950,  4952,  4957,  4964,  4991,  4993,  5003,  5027,  5035,  5195,  5337,  5439,  5457,  5473
  5489,  5599,  5605,  5796,  5810,  5817,  5818,  5820,  5821,  5824,  5846,  5857,  5860,  5861,  5939,  5957
  5963,  5966,  6002,  6059,  6097,  6099,  6170,  6209,  6212,  6221,  6328,  6329,  6332,  6337,  6344,  6351
  6361,  6667,  6673,  6685,  6690,  6824,  6827,  6830,  6933,  6939,  6943,  6946,  7264,  7274,  7358,  7360
  7362,  7381,  7405,  7406,  7422,  7434,  7451,  7452,  7528,  7529,  7694,  7758,  7887,  7892,  7934,  8164
  8649,  9353,  9402, 10097, 10106, 10110
*Elset, elset=__PickedSurf653_S4, internal, instance=OPAL325_GIfiller-1
   747,  1429,  1905,  1929,  1950,  2518,  2520,  2770,  3281,  3321,  3348,  3548,  3932,  4960,  5440,  6336
  6425,  6688,  6873,  7098,  8984, 10105, 10659
*Elset, elset=__PickedSurf653_S1, internal, instance=OPAL325_GIfiller-1
 1558, 1559, 1789, 2732, 3033, 3368, 5449, 7429, 8661, 9277
*Elset, elset=__PickedSurf653_S2, internal, instance=OPAL325_GIfiller-1
 1771, 1939, 4168, 4350, 4396, 5202, 5335, 5956, 5988, 5991, 6076, 6314, 6360, 7570
*Surface, type=ELEMENT, name=_PickedSurf653, internal
__PickedSurf653_S3, S3
__PickedSurf653_S4, S4
__PickedSurf653_S2, S2
__PickedSurf653_S1, S1
*Elset, elset=__PickedSurf659_SNEG, internal, instance=OPAL325_PBody-1, generate
  1,  63,   1
*Surface, type=ELEMENT, name=_PickedSurf659, internal
__PickedSurf659_SNEG, SNEG
*Elset, elset=__PickedSurf677_SPOS, internal, instance=OPAL325_PBody-1, generate
  1,  63,   1
*Elset, elset=__PickedSurf677_SNEG, internal, instance=OPAL325_PBody-1, generate
  1,  63,   1
*Surface, type=ELEMENT, name=_PickedSurf677, internal
__PickedSurf677_SPOS, SPOS
__PickedSurf677_SNEG, SNEG
*Elset, elset=__PickedSurf679_SPOS, internal, instance=OPAL325_PBody-1, generate
  1,  63,   1
*Elset, elset=__PickedSurf679_SNEG, internal, instance=OPAL325_PBody-1, generate
  1,  63,   1
*Surface, type=ELEMENT, name=_PickedSurf679, internal
__PickedSurf679_SPOS, SPOS
__PickedSurf679_SNEG, SNEG
*Elset, elset=__PickedSurf688_S3, internal, instance=OPAL325_GIfiller-1
    85,    87,   206,   335,   353,   445,   531,   654,   661,   670,   739,   821,   826,   932,  1072,  1087
  1108,  1214,  1244,  1324,  1512,  1543,  1544,  1569,  1570,  1581,  1584,  1588,  1593,  1594,  1599,  1601
  1611,  1618,  1626,  1628,  1647,  1660,  1661,  1664,  1667,  1675,  1676,  1682,  1683,  1693,  1696,  1703
  1718,  1720,  1722,  1724,  1726,  1730,  1731,  1738,  1741,  1746,  1748,  1759,  1760,  1771,  1795,  1803
  1811,  1825,  1832,  1838,  1847,  1848,  1851,  1865,  1874,  1875,  1876,  1879,  1881,  1894,  1897,  1906
  1924,  1929,  1937,  1945,  1947,  1950,  1952,  1955,  1959,  1960,  1974,  1977,  1978,  1984,  1986,  1990
  1991,  1998,  2001,  2009,  2011,  2017,  2037,  2040,  2041,  2047,  2049,  2053,  2059,  2069,  2092,  2094
  2096,  2108,  2109,  2110,  2116,  2117,  2118,  2120,  2121,  2129,  2135,  2140,  2143,  2146,  2149,  2151
  2152,  2161,  2164,  2165,  2167,  2173,  2181,  2185,  2186,  2209,  2211,  2212,  2230,  2232,  2239,  2249
  2250,  2262,  2264,  2272,  2283,  2286,  2300,  2306,  2309,  2314,  2323,  2326,  2328,  2333,  2335,  2336
  2337,  2339,  2346,  2351,  2356,  2359,  2361,  2362,  2363,  2365,  2366,  2367,  2373,  2385,  2386,  2387
  2388,  2398,  2407,  2410,  2424,  2431,  2432,  2435,  2437,  2446,  2447,  2450,  2468,  2472,  2480,  2483
  2484,  2486,  2490,  2493,  2495,  2498,  2517,  2519,  2528,  2531,  2533,  2536,  2542,  2545,  2546,  2547
  2548,  2550,  2555,  2557,  2561,  2570,  2573,  2583,  2587,  2597,  2599,  2602,  2605,  2607,  2609,  2610
  2615,  2616,  2628,  2636,  2637,  2638,  2640,  2641,  2644,  2645,  2648,  2657,  2661,  2662,  2663,  2668
  2672,  2673,  2677,  2683,  2687,  2690,  2691,  2695,  2696,  2698,  2704,  2707,  2708,  2709,  2714,  2716
  2718,  2723,  2731,  2736,  2739,  2749,  2750,  2752,  2756,  2761,  2778,  2785,  2792,  2795,  2802,  2804
  2809,  2812,  2816,  2818,  2819,  2829,  2834,  2840,  2842,  2853,  2855,  2860,  2870,  2871,  2874,  2887
  2890,  2891,  2892,  2897,  2900,  2902,  2915,  2916,  2918,  2921,  2931,  2933,  2934,  2937,  2942,  2946
  2948,  2951,  2952,  2954,  2970,  2971,  2977,  2978,  2979,  2983,  2984,  2988,  2990,  2992,  2996,  2998
** ... 56 like lines cut
*Elset, elset=__PickedSurf688_S1, internal, instance=OPAL325_GIfiller-1
  145,  747, 1648, 1905, 2172, 2520, 2618, 2659, 2780, 2947, 2974, 3119, 3236, 3639, 3977, 4076
 4080, 4141, 4522, 4714, 4729, 4778, 4788, 4790, 4801, 4835, 4995, 5190, 5202, 5210, 5286, 5359
 5457, 5473, 5529, 5530, 5551, 5706, 5967, 6076, 6216, 6567, 7059, 7166, 7375, 7405, 7515, 7578
 7596, 7598, 7606, 7643, 8310, 8837, 8904, 9675
*Elset, elset=__PickedSurf688_S4, internal, instance=OPAL325_GIfiller-1
   728,  1257,  1558,  1699,  1789,  1914,  2106,  2257,  2505,  2511,  2562,  2576,  2822,  2835,  3033,  3089
  3098,  3115,  3128,  3241,  3701,  3888,  3999,  4175,  4234,  4453,  4802,  4817,  5154,  5243,  5256,  5397
  5436,  5590,  5683,  5888,  5902,  6004,  6137,  6155,  6245,  6248,  6347,  6360,  6539,  6562,  6685,  6824
  6841,  6853,  6897,  6916,  6926,  7028,  7075,  7187,  7278,  7400,  7516,  7610,  7615,  7642,  8125,  8269
  8327,  8401,  8501,  8520,  8549,  8661,  8710,  9611, 10341, 10347, 10356, 10417, 10547, 10579, 10717
*Elset, elset=__PickedSurf688_S2, internal, instance=OPAL325_GIfiller-1
  1559,  1598,  1749,  1852,  2010,  2294,  2321,  2433,  2655,  2741,  2824,  2964,  2965,  2966,  3015,  3222
  3338,  3426,  3492,  3516,  3715,  3739,  3841,  3881,  3982,  4041,  4105,  4273,  4449,  4491,  4524,  4530
  4602,  4630,  4765,  4832,  5169,  5290,  5377,  5440,  5509,  5695,  5770,  5846,  5877,  5895,  6029,  6495
  6501,  6552,  6636,  6771,  6857,  6920,  6969,  7033,  7134,  7316,  7420,  7438,  7608,  8721, 10060, 10355
 10458,
*Surface, type=ELEMENT, name=_PickedSurf688, internal
__PickedSurf688_S3, S3
__PickedSurf688_S1, S1
__PickedSurf688_S4, S4
__PickedSurf688_S2, S2
*Elset, elset=__PickedSurf699_SNEG, internal, instance=OPAL325_LA-1, generate
   1,  975,    1
*Surface, type=ELEMENT, name=_PickedSurf699, internal
__PickedSurf699_SNEG, SNEG
*Elset, elset=__PickedSurf701_SNEG, internal, instance=OPAL325_LA-1
   1,   2,   3,   4,   5,   6,   7,   8,   9,  10,  11,  12,  13,  14,  15,  16
  17,  18,  19,  20,  21,  22,  23,  24,  25,  26,  27,  28,  29,  30,  31,  32
  33,  34,  35,  36,  37,  38,  39,  40,  41,  42,  43,  44,  45,  46,  47,  48
  49,  50,  51,  52,  53,  54,  55,  56,  57,  58,  59,  60,  61,  62,  63,  64
  65,  66,  67,  68,  69,  70,  71,  72,  73,  74,  75,  76,  77,  78,  79,  80
  81,  82,  83,  84,  85,  86,  87,  88,  89,  90,  91,  92,  93,  94,  95,  96
  97,  98,  99, 100, 101, 102, 103, 104, 105, 106, 107, 108, 109, 110, 111, 112
 113, 114, 115, 116, 117, 118, 119, 120, 121, 122, 123, 124, 125, 126, 127, 128
 129, 130, 131, 132, 133, 134, 135, 136, 137, 138, 139, 140, 141, 142, 143, 144
 145, 146, 147, 148, 149, 150, 151, 152, 153, 154, 155, 156, 157, 158, 159, 160
 161, 162, 163, 164, 165, 166, 167, 168, 169, 170, 171, 172, 173, 174, 175, 176
 177, 178, 179, 180, 181, 182, 183, 184, 185, 186, 187, 188, 189, 190, 191, 192
 193, 194, 195, 196, 197, 198, 199, 200, 201, 202, 203, 204, 205, 206, 207, 208
 209, 210, 211, 212, 213, 214, 215, 216, 217, 218, 219, 220, 221, 222, 223, 224
 225, 226, 227, 228, 229, 230, 231, 232, 233, 234, 235, 236, 237, 238, 239, 240
 241, 242, 243, 244, 245, 246, 247, 248, 249, 250, 251, 252, 253, 254, 255, 256
 257, 258, 259, 260, 261, 262, 263, 264, 265, 266, 267, 268, 269, 270, 271, 272
 273, 274, 275, 276, 277, 278, 279, 280, 281, 282, 283, 284, 285, 286, 287, 288
 289, 290, 291, 292, 293, 294, 295, 296, 297, 298, 299, 300, 301, 302, 303, 304
 305, 306, 307, 308, 309, 310, 311, 312, 313, 314, 315, 316, 317, 318, 319, 320
** ... 11 like lines cut
*Surface, type=ELEMENT, name=_PickedSurf701, internal
__PickedSurf701_SNEG, SNEG
*Elset, elset=__PickedSurf702_SNEG, internal, instance=OPAL325_LA-1, generate
 364,  847,    1
*Surface, type=ELEMENT, name=_PickedSurf702, internal
__PickedSurf702_SNEG, SNEG
*Surface, type=NODE, name=_PickedSet661_CNS_, internal
_PickedSet661, 1.
*Surface, type=NODE, name=_PickedSet646_CNS_, internal
_PickedSet646, 1.
*Surface, type=NODE, name=_PickedSet700_CNS_, internal
_PickedSet700, 1.
*Surface, type=NODE, name=_PickedSet706_CNS_, internal
_PickedSet706, 1.
*Orientation, name="Datum csys-1"
          1.,           0.,           0.,           0.,           1.,           0.
1, 0.
** Constraint: ATLA-N_LA-tie
*Tie, name=ATLA-N_LA-tie, adjust=no, position tolerance=4., type=NODE TO SURFACE, no thickness
_PickedSet661_CNS_, _PickedSurf702
** Constraint: ATLA_D_LA-tie
*Tie, name=ATLA_D_LA-tie, adjust=no, position tolerance=4., type=NODE TO SURFACE, no thickness
_PickedSet646_CNS_, _PickedSurf701
** Constraint: PBody-LA-Tie
*Tie, name=PBody-LA-Tie, adjust=no, position tolerance = 40., type=NODE TO SURFACE, no thickness
_PickedSet700_CNS_, _PickedSurf677
** Constraint: PM-PBody
*Tie, name=PM-PBody, adjust=no, position tolerance=40.,  type=NODE TO SURFACE, no thickness
_PickedSet706_CNS_, _PickedSurf679
** Constraint: RefPlane
**Display Body, instance=OPAL325_Refplane_MirrorD_0318_20-1
*End Assembly
*Amplitude, name=AMP-1, definition=SMOOTH STEP
             0.,              0.,             0.1,            0.33,             0.2,            0.61,             0.3,            0.83
            0.4,            0.96,             0.5,              1.
*Amplitude, name=AMP-2, time=TOTAL TIME
             0.,              0.,            0.05,            0.08,             0.1,            0.15,            0.15,            0.23
            0.2,             0.3,            0.25,            0.38,             0.3,            0.45,            0.35,            0.52
            0.4,            0.58,            0.45,            0.64,             0.5,             0.7,            0.55,            0.76
            0.6,             0.8,            0.65,            0.85,             0.7,            0.89,            0.75,            0.92
            0.8,            0.95,            0.85,            0.97,             0.9,            0.99,              1.,              1.
*Amplitude, name=AMP-3
             0.,              0.,           0.025,            0.08,            0.05,            0.15,           0.075,            0.23
            0.1,             0.3,           0.125,            0.38,            0.15,            0.45,           0.175,            0.52
            0.2,            0.58,           0.225,            0.64,            0.25,             0.7,           0.275,            0.76
            0.3,             0.8,           0.325,            0.85,            0.35,            0.89,           0.375,            0.92
            0.4,            0.95,           0.425,            0.97,            0.45,            0.99,             0.5,              1.
*Amplitude, name=AMP-4
             0.,              0.,          0.0125,            0.08,           0.025,            0.15,          0.0375,            0.23
           0.05,             0.3,          0.0625,            0.38,           0.075,            0.45,          0.0875,            0.52
            0.1,            0.58,          0.1125,            0.64,           0.125,             0.7,          0.1375,            0.76
           0.15,             0.8,          0.1625,            0.85,           0.175,            0.89,          0.1875,            0.92
            0.2,            0.95,          0.2125,            0.97,           0.225,            0.99,            0.25,              1.
*Amplitude, name="active contraction"
             0.,              0.,            0.05,              0.,             0.1,              0.,            0.15,              0.
            0.2,              0.,            0.25,              0.,             0.3,              0.,            0.35,              0.
            0.4,              0.,            0.45,              0.,             0.5,              0.,            0.55,            0.76
            0.6,             0.8,            0.65,            0.85,             0.7,            0.89,            0.75,            0.92
            0.8,            0.95,            0.85,            0.97,             0.9,            0.99,              1.,              1.
*Amplitude, name="active contraction-all time"
             0.,              0.,            0.05,            0.08,             0.1,            0.15,            0.15,            0.23
            0.2,             0.3,            0.25,            0.38,             0.3,            0.45,            0.35,            0.52
            0.4,            0.58,            0.45,            0.64,             0.5,             0.7,            0.55,            0.76
            0.6,             0.8,            0.65,            0.85,             0.7,            0.89,            0.75,            0.92
            0.8,            0.95,            0.85,            0.97,             0.9,            0.99,              1.,              1.
*Amplitude, name="smooth step", definition=SMOOTH STEP
             0.,              0.,            0.05,            0.08,             0.1,            0.15,            0.15,            0.23
            0.2,             0.3,            0.25,            0.38,             0.3,            0.45,            0.35,            0.52
            0.4,            0.58,            0.45,            0.64,             0.5,             0.7,            0.55,            0.76
            0.6,             0.8,            0.65,            0.85,             0.7,            0.89,            0.75,            0.92
            0.8,            0.95,            0.85,            0.97,             0.9,            0.99,              1.,              1.
** 
** MATERIALS
** 
*Material, name=ATFP_HYPER
*Density
 1.1e-05,
*Hyperelastic, n=2, test data input
*Uniaxial Test Data
 1.38501, 0.1
 3.18666, 0.2
  5.5303, 0.3
 8.57895, 0.4
 12.5448, 0.5
 17.7036, 0.6
 24.4143, 0.7
 33.1437, 0.8
 44.4993, 0.9
  59.271,  1.
*Material, name=ATFP_HYPER_highdesity
*Density
  0.00011,
*Hyperelastic, n=2, test data input
*Uniaxial Test Data
 1.38501, 0.1
 3.18666, 0.2
  5.5303, 0.3
 8.57895, 0.4
 12.5448, 0.5
 17.7036, 0.6
 24.4143, 0.7
 33.1437, 0.8
 44.4993, 0.9
  59.271,  1.
*Material, name=AVW_HYPER
*Density
 1.1e-06,
*Hyperelastic, n=2, test data input
*Uniaxial Test Data
 0.0138501, 0.1
 0.0318666, 0.2
  0.055303, 0.3
 0.0857897, 0.4
  0.125448, 0.5
  0.177036, 0.6
  0.244143, 0.7
  0.331437, 0.8
  0.444993, 0.9
  0.592708,  1.
*Material, name=AVW_HYPER20
*Density
 1.1e-06,
*Hyperelastic, n=2, test data input
*Uniaxial Test Data
 0.00138501, 0.1
 0.00318666, 0.2
  0.0055303, 0.3
 0.00857897, 0.4
  0.0125448, 0.5
  0.0177036, 0.6
  0.0244143, 0.7
  0.0331437, 0.8
  0.0444993, 0.9
  0.0592708,  1.
*Material, name="AVW_HYPER20_low density"
*Density
 1.1e-07,
*Hyperelastic, n=2, test data input
*Uniaxial Test Data
 0.00138501, 0.1
 0.00318666, 0.2
  0.0055303, 0.3
 0.00857897, 0.4
  0.0125448, 0.5
  0.0177036, 0.6
  0.0244143, 0.7
  0.0331437, 0.8
  0.0444993, 0.9
  0.0592708,  1.
*Material, name=AVW_HYPER_200
*Density
 1.1e-06,
*Hyperelastic, n=2, test data input
*Uniaxial Test Data
 0.0277002, 0.1
 0.0637332, 0.2
  0.110606, 0.3
  0.171579, 0.4
  0.250896, 0.5
  0.354072, 0.6
  0.488286, 0.7
  0.662874, 0.8
  0.889986, 0.9
   1.18542,  1.
*Material, name=CL10
*Density
 9e-07,
*Hyperelastic, n=2, test data input, poisson=0.49
*Uniaxial Test Data
         0.,         0.
 0.00304466, 0.00333333
 0.00610926, 0.00666667
 0.00919392,       0.01
  0.0122988,  0.0133333
   0.015424,  0.0166667
  0.0185696,       0.02
  0.0217359,  0.0233333
  0.0249229,  0.0266667
  0.0281307,       0.03
  0.0313596,  0.0333333
  0.0346095,  0.0366667
  0.0378808,       0.04
  0.0411735,  0.0433333
  0.0444878,  0.0466667
  0.0478237,       0.05
  0.0511815,  0.0533333
  0.0545613,  0.0566667
  0.0579632,       0.06
  0.0613874,  0.0633333
** ... 181 like lines cut
*Material, name=CL100
*Density
 9e-07,
*Hyperelastic, n=2, test data input, poisson=0.49
*Uniaxial Test Data
        0.,         0.
 0.0304466, 0.00333333
 0.0610926, 0.00666667
 0.0919392,       0.01
  0.122988,  0.0133333
   0.15424,  0.0166667
  0.185696,       0.02
  0.217359,  0.0233333
  0.249229,  0.0266667
  0.281307,       0.03
  0.313596,  0.0333333
  0.346095,  0.0366667
  0.378808,       0.04
  0.411735,  0.0433333
  0.444878,  0.0466667
  0.478237,       0.05
  0.511815,  0.0533333
  0.545613,  0.0566667
  0.579632,       0.06
  0.613874,  0.0633333
** ... 181 like lines cut
*Material, name=CLPara_H100
*Density
 9e-10,
*Hyperelastic, n=2, test data input
*Uniaxial Test Data
 0.00268578,  0.1
  0.0055405,  0.2
 0.00857477,  0.3
  0.0117999,  0.4
  0.0152279,  0.5
  0.0188715,  0.6
  0.0227443,  0.7
  0.0268606,  0.8
  0.0312359,  0.9
  0.0358864,   1.
      1e-05, -0.1
      1e-05, -0.2
      1e-05, -0.3
      1e-05, -0.4
      1e-05, -0.5
      1e-05, -0.6
      1e-05, -0.7
      1e-05, -0.8
      1e-05, -0.9
*Material, name=CLUS_H1
*Density
 9e-07,
*Hyperelastic, n=2, test data input
*Uniaxial Test Data
 2.68578e-05,  0.1
  5.5405e-05,  0.2
 8.57477e-05,  0.3
 0.000117999,  0.4
 0.000152279,  0.5
 0.000188715,  0.6
 0.000227443,  0.7
 0.000268606,  0.8
 0.000312359,  0.9
 0.000358864,   1.
      -1e-06, -0.1
      -1e-06, -0.2
      -1e-06, -0.3
      -1e-06, -0.4
      -1e-06, -0.5
      -1e-06, -0.6
      -1e-06, -0.7
      -1e-06, -0.8
      -1e-06, -0.9
*Material, name=CLUS_H5
*Density
 9e-07,
*Hyperelastic, n=2, test data input
*Uniaxial Test Data
 0.000134289, 0.1
 0.000277025, 0.2
 0.000428739, 0.3
 0.000589995, 0.4
 0.000761395, 0.5
 0.000943575, 0.6
  0.00113722, 0.7
  0.00134303, 0.8
  0.00156179, 0.9
  0.00179432,  1.
*Material, name=CLUS_H10
*Density
 9e-07,
*Hyperelastic, n=2, test data input
*Uniaxial Test Data
 0.000268578,  0.1
  0.00055405,  0.2
 0.000857477,  0.3
  0.00117999,  0.4
  0.00152279,  0.5
  0.00188715,  0.6
  0.00227443,  0.7
  0.00268606,  0.8
  0.00312359,  0.9
  0.00358864,   1.
       1e-05, -0.1
       1e-05, -0.2
       1e-05, -0.3
       1e-05, -0.4
       1e-05, -0.5
       1e-05, -0.6
       1e-05, -0.7
       1e-05, -0.8
       1e-05, -0.9
*Material, name=CLUS_H50
*Density
 9e-07,
*Hyperelastic, n=2, test data input
*Uniaxial Test Data
 0.00134289, 0.1
 0.00277025, 0.2
 0.00428739, 0.3
 0.00589995, 0.4
 0.00761395, 0.5
 0.00943575, 0.6
  0.0113721, 0.7
  0.0134303, 0.8
   0.015618, 0.9
  0.0179432,  1.
*Material, name=CLUS_H100
*Density
 9e-07,
*Hyperelastic, n=2, test data input
*Uniaxial Test Data
 0.00268578,  0.1
  0.0055405,  0.2
 0.00857477,  0.3
  0.0117999,  0.4
  0.0152279,  0.5
  0.0188715,  0.6
  0.0227443,  0.7
  0.0268606,  0.8
  0.0312359,  0.9
  0.0358864,   1.
      1e-05, -0.1
      1e-05, -0.2
      1e-05, -0.3
      1e-05, -0.4
      1e-05, -0.5
      1e-05, -0.6
      1e-05, -0.7
      1e-05, -0.8
      1e-05, -0.9
*Material, name=CLpara_H10
*Density
 9e-07,
*Hyperelastic, n=2, test data input
*Uniaxial Test Data
 0.000134289,  0.1
 0.000277025,  0.2
 0.000428739,  0.3
 0.000589995,  0.4
 0.000761395,  0.5
 0.000943575,  0.6
  0.00113722,  0.7
  0.00134303,  0.8
  0.00156179,  0.9
  0.00179432,   1.
       1e-05, -0.1
       1e-05, -0.2
       1e-05, -0.3
       1e-05, -0.4
       1e-05, -0.5
       1e-05, -0.6
       1e-05, -0.7
       1e-05, -0.8
       1e-05, -0.9
*Material, name=PARAVAG_H
*Density
 9e-07,
*Hyperelastic, n=2, test data input
*Uniaxial Test Data
  0.00268578,  0.1
 0.000268578,  0.2
  0.00055405,  0.3
 0.000857478,  0.4
  0.00117999,  0.5
  0.00152279,  0.6
  0.00188715,  0.7
  0.00227443,  0.8
  0.00268606,  0.9
  0.00312359,   1.
       1e-05, -0.1
       1e-05, -0.2
       1e-05, -0.3
       1e-05, -0.4
       1e-05, -0.5
       1e-05, -0.6
       1e-05, -0.7
       1e-05, -0.8
       1e-05, -0.9
*Material, name=PARAVAG_H_highdensity
*Density
 9e-07,
*Hyperelastic, n=2, test data input
*Uniaxial Test Data
  0.0268578,  0.1
 0.00268578,  0.2
  0.0055405,  0.3
 0.00857478,  0.4
  0.0117999,  0.5
  0.0152279,  0.6
  0.0188715,  0.7
  0.0227443,  0.8
  0.0268606,  0.9
  0.0312359,   1.
      1e-05, -0.1
      1e-05, -0.2
      1e-05, -0.3
      1e-05, -0.4
      1e-05, -0.5
      1e-05, -0.6
      1e-05, -0.7
      1e-05, -0.8
      1e-05, -0.9
*Material, name=PARAVAG_H_lowdenstiy
*Density
 9e-09,
*Hyperelastic, n=2, test data input
*Uniaxial Test Data
  0.00268578,  0.1
 0.000268578,  0.2
  0.00055405,  0.3
 0.000857478,  0.4
  0.00117999,  0.5
  0.00152279,  0.6
  0.00188715,  0.7
  0.00227443,  0.8
  0.00268606,  0.9
  0.00312359,   1.
       1e-05, -0.1
       1e-05, -0.2
       1e-05, -0.3
       1e-05, -0.4
       1e-05, -0.5
       1e-05, -0.6
       1e-05, -0.7
       1e-05, -0.8
       1e-05, -0.9
*Material, name=PCM_HYPER10
*Density
 1.1e-06,
*Hyperelastic, n=2, test data input
*Uniaxial Test Data
 0.0014, 0.1
 0.0032, 0.2
 0.0055, 0.3
 0.0086, 0.4
 0.0125, 0.5
 0.0177, 0.6
 0.0244, 0.7
 0.0331, 0.8
 0.0445, 0.9
   0.06,  1.
*Material, name=PCM_HYPER20
*Density
 1.1e-06,
*Hyperelastic, n=2, test data input
*Uniaxial Test Data
 0.00277002, 0.1
 0.00637332, 0.2
  0.0110606, 0.3
  0.0171579, 0.4
  0.0250896, 0.5
  0.0354072, 0.6
  0.0488286, 0.7
  0.0662874, 0.8
  0.0889986, 0.9
   0.118542,  1.
*Material, name=PCM_HYPER40
*Density
 1.1e-06,
*Hyperelastic, n=2, test data input
*Uniaxial Test Data
 0.00554004, 0.1
  0.0127466, 0.2
  0.0221212, 0.3
  0.0343159, 0.4
  0.0501792, 0.5
  0.0708144, 0.6
  0.0976572, 0.7
   0.132575, 0.8
   0.177997, 0.9
   0.237083,  1.
*Material, name=PCM_HYPER60
*Density
 1.1e-06,
*Hyperelastic, n=2, test data input
*Uniaxial Test Data
 0.00831006, 0.1
    0.01912, 0.2
  0.0331818, 0.3
  0.0514738, 0.4
  0.0752688, 0.5
   0.106222, 0.6
   0.146486, 0.7
   0.198862, 0.8
   0.266996, 0.9
   0.355625,  1.
*Material, name=PCM_HYPER80
*Density
 1.1e-06,
*Hyperelastic, n=2, test data input
*Uniaxial Test Data
 0.0110801, 0.1
 0.0254933, 0.2
 0.0442424, 0.3
 0.0686318, 0.4
  0.100358, 0.5
  0.141629, 0.6
  0.195314, 0.7
   0.26515, 0.8
  0.355994, 0.9
  0.474166,  1.
*Material, name=PCM_HYPER100
*Density
 1.1e-06,
*Hyperelastic, n=2, test data input
*Uniaxial Test Data
 0.0138501, 0.1
 0.0318666, 0.2
  0.055303, 0.3
 0.0857897, 0.4
  0.125448, 0.5
  0.177036, 0.6
  0.244143, 0.7
  0.331437, 0.8
  0.444993, 0.9
  0.592708,  1.
*Material, name=PCM_HYPER300
*Density
 1.1e-06,
*Hyperelastic, n=2, test data input
*Uniaxial Test Data
 0.0415503, 0.1
 0.0955998, 0.2
  0.165909, 0.3
  0.257369, 0.4
  0.376344, 0.5
  0.531108, 0.6
  0.732429, 0.7
  0.994311, 0.8
   1.33498, 0.9
   1.77812,  1.
** 
** INTERACTION PROPERTIES
** 
*Surface Interaction, name=Penalty
*Friction
1.,
*Surface Interaction, name=frictionless
*Friction
0.,
*Surface Interaction, name=rough
*Friction, rough
** 
** BOUNDARY CONDITIONS
** 
** Name: ATFP_Fix Type: Symmetry/Antisymmetry/Encastre
*Boundary
_PickedSet545, PINNED
** Name: ATFPbackends Type: Symmetry/Antisymmetry/Encastre
*Boundary
_PickedSet487, PINNED
** Name: ATLA_Fix Type: Symmetry/Antisymmetry/Encastre
*Boundary
_PickedSet586, PINNED
** Name: CL&US Type: Symmetry/Antisymmetry/Encastre
*Boundary
_PickedSet542, PINNED
** Name: LAposterior Type: Symmetry/Antisymmetry/Encastre
*Boundary
_PickedSet704, PINNED
** Name: PM Type: Displacement/Rotation
*Boundary
_PickedSet705, 1, 1
_PickedSet705, 2, 2
_PickedSet705, 3, 3
_PickedSet705, 4, 4
_PickedSet705, 5, 5
_PickedSet705, 6, 6
** 
** INTERACTIONS
** 
** Interaction: Self-Contact
*Contact, op=NEW
*Contact Inclusions, ALL EXTERIOR
*Contact Property Assignment
 ,  , frictionless
** ----------------------------------------------------------------
** 
** STEP: Step-1
** 
*Step, name=Step-1, nlgeom=YES
*Dynamic, Explicit
, 1.,, 0.1
*Bulk Viscosity
0.06, 1.2
** 
** LOADS
** 
** Name: pressure   Type: Pressure
*Dsload, amplitude="smooth step"
_PickedSurf560, P, 0.01
** Name: traction   Type: Surface traction
*Dsload, amplitude=AMP-4, orientation="Datum csys-1"
_PickedSurf544, TRVEC, 5e-05, 0., 0., -1.
** 
** INTERACTIONS
** 
** Interaction: AVW-Filler-Contact
*Contact Pair, interaction=frictionless, mechanical constraint=KINEMATIC, cpset=AVW-Filler-Contact
_PickedSurf555, s_Surf-15
** Interaction: Filler-LA-Contact
*Contact Pair, interaction=Penalty, mechanical constraint=KINEMATIC, cpset=Filler-LA-Contact
_PickedSurf699, _PickedSurf688
** Interaction: Filler-PBody
*Contact Pair, interaction=rough, mechanical constraint=KINEMATIC, cpset=Filler-PBody
_PickedSurf659, _PickedSurf653
** 
** OUTPUT REQUESTS
** 
*Restart, write, number interval=1, time marks=NO
** 
** FIELD OUTPUT: F-Output-1
** 
*Output, field, number interval=10
*Node Output
A, COORD, RF, U, V
*Element Output, directions=YES
ELEDEN, ELEN, ENER, LE, PE, PEEQ, S
*Contact Output
CSTRESS, 
** 
** HISTORY OUTPUT: H-Output-1
** 
*Output, history, variable=PRESELECT
*End Step
