*Heading
** Job name: Normal_2_withoutPMLAtie Model name: model1
** Generated by: Abaqus/CAE 2016
*Preprint, echo=NO, model=NO, history=NO, contact=NO
**
** PARTS
**
*Part, name=OPAL325_ATFP
*Node
1,   18.4495735,   8.87388229,  -22.5602055
2,   51.7812004,  -30.5793228,   22.1485519
3,  -25.8520317,   11.9009781,  -22.4409065
4,  -67.3580933,    -29.51054,     22.39851
5,   18.7712936,   8.52146053,  -22.4077053
6,    19.087204,   8.16783428,  -22.2461185
7,   19.3970432,   7.81318045,  -22.0752926
8,   19.7005444,   7.45769215,  -21.8950825
9,   19.9974442,   7.10157537,   -21.705368
10,   20.2874775,   6.74505234,  -21.5060387
11,    20.570385,   6.38835812,  -21.2970142
12,   20.8459148,   6.03174257,   -21.078228
13,   21.1138229,   5.67546558,  -20.8496437
14,   21.3738766,   5.31979895,   -20.611248
15,   21.6258545,   4.96502399,  -20.3630543
16,   21.8695564,   4.61142731,  -20.1051064
17,   22.1047955,   4.25930119,   -19.837471
18,   22.3314075,   3.90894175,  -19.5602493
19,   22.5492516,   3.56064248,  -19.2735615
20,   22.7582111,   3.21469665,   -18.977562
** ... 286 like lines cut
*Element, type=T3D2
1,   1,   5
2,   5,   6
3,   6,   7
4,   7,   8
5,   8,   9
6,   9,  10
7,  10,  11
8,  11,  12
9,  12,  13
10,  13,  14
11,  14,  15
12,  15,  16
13,  16,  17
14,  17,  18
15,  18,  19
16,  19,  20
17,  20,  21
18,  21,  22
19,  22,  23
20,  23,  24
** ... 284 like lines cut
*Nset, nset=_PickedSet5, internal, generate
1,  306,    1
*Elset, elset=_PickedSet5, internal, generate
1,  304,    1
*Nset, nset=_PickedSet7, internal, generate
1,  306,    1
*Elset, elset=_PickedSet7, internal, generate
1,  304,    1
** Section: ATPF-wire
*Solid Section, elset=_PickedSet5, material=ATFP_HYPER
1.,
*Nonstructural Mass, elset=_PickedSet7, units=TOTAL MASS
0.005,
*End Part
**
*Part, name=OPAL325_ATLA
*Node
1,  -66.2551956,  -30.5507946,   22.3432255
2,  -46.6685181,   30.0492096,   1.58248425
3,   60.2551956,  -30.5507946,   22.3432255
4,   40.6685181,   30.0492096,   1.58248425
5,  -66.2220459,  -30.5239983,   22.3170605
6,  -66.1889191,  -30.4971561,   22.2909107
7,  -66.1558228,  -30.4702663,   22.2647743
8,  -66.1227417,  -30.4433289,   22.2386551
9,  -66.0896988,  -30.4163456,    22.212553
10,  -66.0566788,  -30.3893127,   22.1864643
11,  -66.0236816,  -30.3622341,   22.1603909
12,   -65.990715,  -30.3351097,   22.1343346
13,  -65.9577713,  -30.3079357,   22.1082935
14,  -65.9248505,  -30.2807159,   22.0822697
15,  -65.8919678,  -30.2534485,   22.0562592
16,  -65.8591003,  -30.2261333,   22.0302658
17,  -65.8262634,  -30.1987705,   22.0042896
18,   -65.793457,  -30.1713619,   21.9783268
19,  -65.7606735,  -30.1439056,   21.9523811
20,  -65.7279205,  -30.1164017,   21.9264526
** ... 2736 like lines cut
*Element, type=T3D2
1,    1,    5
2,    5,    6
3,    6,    7
4,    7,    8
5,    8,    9
6,    9,   10
7,   10,   11
8,   11,   12
9,   12,   13
10,   13,   14
11,   14,   15
12,   15,   16
13,   16,   17
14,   17,   18
15,   18,   19
16,   19,   20
17,   20,   21
18,   21,   22
19,   22,   23
20,   23,   24
** ... 2734 like lines cut
*Nset, nset=_PickedSet5, internal, generate
1,  2756,     1
*Elset, elset=_PickedSet5, internal, generate
1,  2754,     1
*Nset, nset=_PickedSet7, internal, generate
1,  2756,     1
*Elset, elset=_PickedSet7, internal, generate
1,  2754,     1
** Section: ATPF-wire
*Solid Section, elset=_PickedSet5, material=ATFP_HYPER
1.,
*Nonstructural Mass, elset=_PickedSet7, units=TOTAL MASS
0.005,
*End Part
**
*Part, name=OPAL325_AVW_v6
*Node
      1,22.158349488353153,-8.190872188817792, 12.57489172476648
      2,-23.164270001833167,-8.039254713426075, 15.39417811054075
      3,-23.743028525968185,-7.786726214530503, 23.16267470832301
      4,20.42526238134095,-9.349286079681647, 20.94363488764059
      5,22.562714871687106,-7.2507665745922765, 7.0322351688006535
      6,-22.265840837328504,-7.864856879639987, 9.09761313027873
      7,22.203789211136055,-6.496436147811693, 3.1101638849851696
      8,-21.539622397059446,-7.0004445438867435, 3.910879777880112
      9,20.67558693030976,-5.521414865808083, -1.4759174214264021
     10,-21.15465289381853,-4.0594941011137, -2.642438482454523
     11,18.878143196483073,-4.2108224009041635, -5.91817062902237
     12,-20.788798083875207,-0.9770295888980343, -7.139400775745088
     13,17.552876967336015,-2.4395849178638116, -11.488237420676086
     14,-20.44852698718016,1.5350335678010083, -11.602896633101295
     15,17.080303845496456,-1.1943594389754253, -16.59371918941048
     16,-20.462087930756354,2.662567349799133, -16.438600710473395
     17,16.73568508519845,-0.7371384406275752, -20.655980881584583
     18,-20.429712633198818,2.259898790079717, -21.32230343863978
     19,16.069277793135495,-0.8738423367793757, -23.959573908090988
     20,-20.21014063545077,1.1189879021852107, -25.097077482623178
** ... 289 like lines cut
*Element, type=S4R
1,   4,  58, 193,  57
2,  58,   1,  27, 193
3, 190,  29,  30, 191
4, 191,  54,  55, 190
5,  31,  32,  53, 188
6,  33, 196,  51,  52
7, 189,  47,  48, 186
8,  42,   3,  43, 183
9,   2,  42, 183,  41
10,  36,  37, 189, 186
11, 184,  39,  40, 185
12,  41, 183, 185,  40
13, 183,  43,  44, 185
14, 185,  44,  45, 184
15,  38,  39, 184, 192
16, 192,  46,  47, 189
17, 192, 189,  37,  38
18,  36, 186, 194,  35
19, 195,  34,  35, 194
20,  32,  33,  52,  53
** ... 257 like lines cut
*Node
310,           0.,           0.,           0.
*Nset, nset=_PickedSet13, internal, generate
1,  309,    1
*Elset, elset=_PickedSet13, internal, generate
1,  277,    1
*Nset, nset=_PickedSet33, internal
19,  20,  21,  22,  23,  24,  25,  26, 165, 166, 167, 168, 169, 170, 171, 172
173, 174, 175, 176, 177, 178, 179, 180, 181, 182, 301, 302, 303, 304, 305, 306
307, 308, 309
*Elset, elset=_PickedSet33, internal, generate
257,  277,    1
*Nset, nset=_PickedSet34, internal
1,   2,   3,   4,   5,   6,   7,   8,   9,  10,  11,  12,  13,  14,  15,  16
17,  18,  19,  20,  27,  28,  29,  30,  31,  32,  33,  34,  35,  36,  37,  38
39,  40,  41,  42,  43,  44,  45,  46,  47,  48,  49,  50,  51,  52,  53,  54
55,  56,  57,  58,  59,  60,  61,  62,  63,  64,  65,  66,  67,  68,  69,  70
71,  72,  73,  74,  75,  76,  77,  78,  79,  80,  81,  82,  83,  84,  85,  86
87,  88,  89,  90,  91,  92,  93,  94,  95,  96,  97,  98,  99, 100, 101, 102
103, 104, 105, 106, 107, 108, 109, 110, 111, 112, 113, 114, 115, 116, 117, 118
119, 120, 121, 122, 123, 124, 125, 126, 127, 128, 129, 130, 131, 132, 133, 134
135, 136, 137, 138, 139, 140, 141, 142, 143, 144, 145, 146, 147, 148, 149, 150
151, 152, 153, 154, 155, 156, 157, 158, 159, 160, 161, 162, 163, 164, 165, 166
167, 168, 169, 170, 171, 172, 173, 174, 175, 176, 183, 184, 185, 186, 187, 188
189, 190, 191, 192, 193, 194, 195, 196, 197, 198, 199, 200, 201, 202, 203, 204
205, 206, 207, 208, 209, 210, 211, 212, 213, 214, 215, 216, 217, 218, 219, 220
221, 222, 223, 224, 225, 226, 227, 228, 229, 230, 231, 232, 233, 234, 235, 236
237, 238, 239, 240, 241, 242, 243, 244, 245, 246, 247, 248, 249, 250, 251, 252
253, 254, 255, 256, 257, 258, 259, 260, 261, 262, 263, 264, 265, 266, 267, 268
269, 270, 271, 272, 273, 274, 275, 276, 277, 278, 279, 280, 281, 282, 283, 284
285, 286, 287, 288, 289, 290, 291, 292, 293, 294, 295, 296, 297, 298, 299, 300
*Elset, elset=_PickedSet34, internal, generate
1,  256,    1
** Section: AWP
*Shell Section, elset=_PickedSet34, material=AVW_HYPER_Analog, offset=SPOS
2., 5
** Section: AWP_dis
*Shell Section, elset=_PickedSet33, material=ATFP_HYPER_highdesity
2., 5
*Nonstructural Mass, elset=_PickedSet13, units=TOTAL MASS
0.02,
*End Part
**
*Part, name=OPAL325_CL_v6
*Node
1,   -23.477602,   -9.2332077,   13.4487724
2,  -51.6031265,  -20.0011997,          66.
3,  -21.4883194,  -7.00388479,   3.66301107
4,  -54.3323517,  -20.0011997,          66.
5,  -20.8467903, -0.495841533,  -6.06241083
6,  -56.5408401,  -20.0011997,          66.
7,    48.057724,  -20.0011997,   60.6057892
8,   22.9393787,  -9.06633091,   11.6914644
9,   48.7779503,  -20.0011997,   61.1147537
10,   22.5130825,  -6.58313417,   3.69639874
11,         49.5,  -20.0011997,       61.625
12,    19.053463,  -3.84398389,  -4.96597242
13,   49.1636162,  -19.9960423,   61.3710022
14,   20.9049683,  -5.36190224, -0.678462505
15,   48.3391304,  -20.0011997,   60.8046494
16,   23.0112114,   -7.6095047,    7.1879549
17,       47.625,  -20.0011997,   60.2999992
18,   21.9448528,  -11.2704992,   17.7938232
19,  -21.2140045,  -3.74090409,  -2.05388594
20,  -55.4875565,  -20.0011997,          66.
** ... 1570 like lines cut
*Element, type=T3D2
1,   1,  25
2,  25,  26
3,  26,  27
4,  27,  28
5,  28,  29
6,  29,  30
7,  30,  31
8,  31,  32
9,  32,  33
10,  33,  34
11,  34,  35
12,  35,  36
13,  36,  37
14,  37,  38
15,  38,  39
16,  39,  40
17,  40,  41
18,  41,  42
19,  42,  43
20,  43,  44
** ... 1558 like lines cut
*Nset, nset=_PickedSet4, internal, generate
1,  24,   1
*Nset, nset=_PickedSet5, internal, generate
1,  1590,     1
*Elset, elset=_PickedSet5, internal, generate
1,  1578,     1
** Section: CL-wire
*Solid Section, elset=_PickedSet5, material=CL_Analog
1.,
*Element, type=ROTARYI, elset=_PickedSet4_Inertia-1_
1579, 1
1580, 2
1581, 3
1582, 4
1583, 5
1584, 6
1585, 7
1586, 8
1587, 9
1588, 10
1589, 11
1590, 12
1591, 13
1592, 14
1593, 15
1594, 16
1595, 17
1596, 18
1597, 19
1598, 20
** ... 4 like lines cut
*Rotary Inertia, elset=_PickedSet4_Inertia-1_
0.0001, 0.0001, 0.0001, 0., 0., 0.
*End Part
**
*Part, name=OPAL325_GIfiller
*Node
1,-7.950511370698845,-36.68943427755952, -22.63554627076141
2,-16.500239631662936,-19.014439404811185, -30.069162474243612
3,-2.6280089976671164,-5.5704245633477285, -28.26017219681671
4,4.8942480742271375,-25.77862788538281, -30.155712044402886
5,-20.594211110118522,-20.034259338238204, 24.414918804126415
6,-4.131562522016509,-4.616307769682912, 21.470636562679285
7,15.517522222445056,-29.769626027325074, 23.945363906802044
8,7.817301944231103,-22.917661745109037, -0.44754122516370387
9,7.531661517275051,-22.21285919727518, -6.624209332911732
10,1.3223316479237264,-54.180252682006085, 21.829096088378904
11,-9.87469002154603,-35.04109546252101, -25.10380521237623
12,-10.779202403871643,-32.45442840275964, -27.456621157183477
13,-11.53436401677471,-29.615122080665245, -29.1038432292591
14,-12.637620179111579,-26.85110121325723, -30.050391515487476
15,-13.95841893743016,-24.212506712842952, -30.4776925691274
16,-15.282500231205184,-21.61675354508162, -30.51115176491065
17,-17.543052860902193,-16.34228914165851, -29.270475079831215
18,-18.308467423352354,-13.593939800168783, -28.447127656274176
19,-18.62358942612947,-10.713536491898083, -27.782180090627207
20,-18.155916061506815,-7.778552182088106, -27.63403647054068
** ... 2303 like lines cut
*Element, type=C3D4
1,  986,  987,  988,  989
2,  989,  987,  990,  986
3,  986,  991,  992,  993
4,  986,  994,  995,  996
5,  986,  997,  987,  994
6,  986,  988,  987,  998
7,  997,  999, 1000, 1001
8,  997, 1002, 1003, 1004
9,  997,  994, 1005, 1006
10,  997, 1001, 1000, 1003
11, 1007, 1008,  999, 1009
12, 1010, 1008,  999, 1007
13,  999, 1011, 1008, 1012
14,  999, 1012, 1013, 1014
15,  996,  999, 1011,  998
16, 1015,  999, 1016, 1009
17, 1017, 1000, 1014, 1001
18, 1000, 1014, 1001,  999
19, 1018, 1019, 1020, 1021
20, 1022,   19, 1023, 1024
** ... 10758 like lines cut
*Nset, nset=_PickedSet5, internal, generate
1,  2323,     1
*Elset, elset=_PickedSet5, internal, generate
1,  10778,      1
*Nset, nset=_PickedSet6, internal, generate
1,  2323,     1
*Elset, elset=_PickedSet6, internal, generate
1,  10778,      1
** Section: VAGFiller
*Solid Section, elset=_PickedSet6, material="AVW_HYPER20_low density"
1.,
*Nonstructural Mass, elset=_PickedSet5, units=TOTAL MASS
0.2,
*End Part
**
*Part, name=OPAL325_LA
*Node
1,-5.225922365993716,-36.550100066681736, -2.812014791879193
2,26.707604285193867,17.591101977230437, -19.44729602515247
3,14.614193565122395,-11.262382733063674, -28.549958261694115
4,2.3782509484495815,-28.586181973814142, -29.988894201105992
5,-6.418650816456765,-37.80990654099065, -21.719657669907264
6,-32.842842591883965,18.381776979263805, -18.57953946299631
7,-6.03580719686409,-36.498145851938574, -2.842636176831121
8,-13.52706110719759,-25.954522802004618, -30.754136475203026
9,-20.62232169421371,-11.224971172414826, -28.55051964948855
10,40.52039382861655,30.96470220642118, 1.1407640401253047
11,-47.568913756759,30.433636493141194, 1.120146509859751
12,-66.11560743584002,-30.429273429916293, 22.666871551723432
13,-1.8007690695824157,-66.60787436451284, 14.644581976996022
14,61.374435409701,-31.34136125322982, 19.467062417702664
15,-2.8488804011300206,-36.010941280716466, -3.0361937171519173
16,-0.8211113077555374,-34.61019721197649, -3.6711704120967568
17,0.8191249814401491,-32.723797543989726, -4.5635371633507305
18,2.4402087357837825,-30.83004263087203, -5.5201855913733056
19,4.083627045178115,-28.999195524843664, -6.489698792966777
20,5.507398242275389,-26.928599773970888, -7.5561342510753065
** ... 2062 like lines cut
*Element, type=S3
1, 457, 383, 384
2, 459, 360, 407
3, 471, 351, 350
175, 590, 497, 498
176, 545, 477, 544
177, 583, 528, 582
178, 612, 557, 529
179, 562, 476, 606
180, 563, 476, 475
181, 579, 520, 567
182, 610, 541, 540
183, 528, 537, 582
184, 617, 586, 511
356,  15,   1, 119
357, 676, 126, 675
358, 622, 624, 623
359, 727, 698, 663
360, 718, 649, 648
361, 723, 652, 653
362, 738, 636, 724
** ... 54 like lines cut
*Element, type=S4R
4, 332, 338, 339, 333
5, 338, 351, 352, 339
6,  18,  19, 335, 331
7, 368, 472, 369, 424
8, 402, 398,   4,  60
9, 429, 391, 392, 393
10, 463, 396, 465, 440
11,  17,  18, 331, 332
12, 332, 333,  16,  17
13, 333, 334,  15,  16
14, 352, 353, 340, 339
15,   1,  15, 334,  70
16, 337, 336, 349, 350
17, 448, 451, 469, 388
18, 391, 446, 443, 390
19, 452, 392, 391, 390
20, 471, 350, 444, 368
21, 331, 335, 336, 337
22, 390, 389, 433, 452
23, 431, 388, 469, 454
** ... 1927 like lines cut
*Nset, nset=_PickedSet44, internal
1,    7,   10,   11,   12,   13,   14,  119,  120,  121,  122,  123,  124,  125,  126,  127
128,  129,  130,  131,  132,  133,  134,  135,  136,  137,  138,  139,  140,  141,  142,  143
144,  145,  146,  147,  148,  149,  150,  162,  163,  164,  165,  166,  167,  168,  169,  170
171,  172,  173,  174,  175,  176,  177,  178,  179,  180,  181,  182,  183,  184,  185,  186
187,  188,  189,  190,  191,  192,  193,  194,  195,  196,  197,  198,  199,  200,  201,  202
203,  204,  205,  206,  207,  208,  209,  210,  211,  212,  213,  214,  215,  216,  217,  218
219,  220,  221,  222,  223,  224,  225,  226,  227,  228,  229,  230,  231,  232,  233,  234
235,  236,  237,  238,  239,  240,  241,  242,  243,  244,  245,  246,  247,  248,  249,  250
251,  252,  253,  254,  255,  256,  257,  258,  259,  260,  261,  262,  263,  264,  275,  276
277,  278,  279,  280,  281,  282,  283,  284,  285,  286,  287,  288,  289,  290,  291,  292
293,  294,  295,  296,  297,  298,  299,  300,  301,  302,  303,  304,  305,  306,  307,  308
309,  310,  311,  312,  313,  314,  315,  316,  317,  318,  319,  320,  321,  322,  323,  324
325,  326,  327,  328,  329,  330,  739,  740,  741,  742,  743,  744,  745,  746,  747,  748
749,  750,  751,  752,  753,  754,  755,  756,  757,  758,  759,  760,  761,  762,  763,  764
765,  766,  767,  768,  769,  770,  771,  772,  773,  774,  775,  776,  777,  778,  779,  780
781,  782,  783,  784,  785,  786,  787,  788,  789,  790,  791,  792,  793,  794,  795,  796
797,  798,  799,  800,  801,  802,  803,  804,  805,  806,  807,  808,  809,  810,  811,  812
813,  814,  815,  816,  817,  818,  819,  820,  821,  822,  823,  824,  825,  826,  827,  828
829,  830,  831,  832,  833,  834,  835,  836,  837,  838,  839,  840,  841,  842,  843,  844
845,  846,  847,  848,  849,  850,  851,  852,  853,  854,  855,  856,  857,  858,  859,  860
** ... 71 like lines cut
*Elset, elset=_PickedSet44, internal
513,  514,  515,  516,  517,  518,  519,  520,  521,  522,  523,  524,  525,  526,  527,  528
529,  530,  531,  532,  533,  534,  535,  536,  537,  538,  539,  540,  541,  542,  543,  544
545,  546,  547,  548,  549,  550,  551,  552,  553,  554,  555,  556,  557,  558,  559,  560
561,  562,  563,  564,  565,  566,  567,  568,  569,  570,  571,  572,  573,  574,  575,  576
577,  578,  579,  580,  581,  582,  583,  584,  585,  586,  587,  588,  589,  590,  591,  592
593,  594,  595,  596,  597,  598,  599,  600,  601,  602,  603,  604,  605,  606,  607,  608
609,  610,  611,  612,  613,  614,  615,  616,  617,  618,  619,  620,  621,  622,  623,  624
625,  626,  627,  628,  629,  630,  631,  632,  633,  634,  635,  636,  637,  638,  639,  640
641,  642,  643,  644,  645,  646,  647,  648,  649,  650,  651,  652,  653,  654,  655,  656
657,  658,  659,  660,  661,  662,  663,  664,  665,  666,  667,  668,  669,  670,  671,  672
673,  674,  675,  676,  677,  678,  679,  680,  681,  682,  683,  684,  685,  686,  687,  688
689,  690,  691,  692,  693,  694,  695,  696,  697,  698,  699,  700,  701,  702,  703,  704
705,  706,  707,  708,  709,  710,  711,  712,  713,  714,  715,  716,  717,  718,  719,  720
721,  722,  723,  724,  725,  726,  727,  728,  729,  730,  731,  732,  733,  734,  735,  736
737,  738,  739,  740,  741,  742,  743,  744,  745,  746,  747,  748,  749,  750,  751,  752
753,  754,  755,  756,  757,  758,  759,  760,  761,  762,  763,  764,  765,  766,  767,  768
769,  770,  771,  772,  773,  774,  775,  776,  777,  778,  779,  780,  781,  782,  783,  784
785,  786,  787,  788,  789,  790,  791,  792,  793,  794,  795,  796,  797,  798,  799,  800
801,  802,  803,  804,  805,  806,  807,  808,  809,  810,  811,  812,  813,  814,  815,  816
817,  818,  819,  820,  821,  822,  823,  824,  825,  826,  827,  828,  829,  830,  831,  832
** ... 66 like lines cut
*Nset, nset=_PickedSet45, internal
1,    2,    6,    7,   10,   11,   15,   16,   17,   18,   19,   20,   21,   22,   23,   24
25,   26,   27,   28,   29,   30,   31,   32,   33,   34,   35,   36,   37,   38,   39,   71
72,   73,   74,   75,   76,   77,   78,   79,   80,   81,   82,   83,   84,   85,   86,   87
88,   89,   90,   91,   92,   93,   94,  119,  120,  121,  122,  123,  124,  125,  126,  127
128,  129,  130,  131,  132,  133,  134,  135,  136,  137,  138,  139,  140,  141,  142,  143
144,  145,  146,  147,  148,  149,  150,  151,  152,  153,  154,  155,  156,  157,  158,  159
160,  161,  162,  163,  164,  165,  166,  167,  168,  169,  170,  171,  172,  173,  174,  175
176,  177,  178,  179,  180,  181,  182,  183,  184,  185,  186,  187,  188,  189,  190,  191
192,  265,  266,  267,  268,  269,  270,  271,  272,  273,  274,  621,  622,  623,  624,  625
626,  627,  628,  629,  630,  631,  632,  633,  634,  635,  636,  637,  638,  639,  640,  641
642,  643,  644,  645,  646,  647,  648,  649,  650,  651,  652,  653,  654,  655,  656,  657
658,  659,  660,  661,  662,  663,  664,  665,  666,  667,  668,  669,  670,  671,  672,  673
674,  675,  676,  677,  678,  679,  680,  681,  682,  683,  684,  685,  686,  687,  688,  689
690,  691,  692,  693,  694,  695,  696,  697,  698,  699,  700,  701,  702,  703,  704,  705
706,  707,  708,  709,  710,  711,  712,  713,  714,  715,  716,  717,  718,  719,  720,  721
722,  723,  724,  725,  726,  727,  728,  729,  730,  731,  732,  733,  734,  735,  736,  737
738, 1363, 1364, 1365, 1366, 1367, 1368, 1369, 1370, 1371, 1372, 1373, 1374, 1375, 1376, 1377
1378, 1379, 1380, 1381, 1382, 1383, 1384, 1385, 1386, 1387, 1388, 1389, 1390, 1391, 1392, 1393
1394, 1395, 1396, 1397, 1398, 1399, 1400, 1401, 1402, 1403, 1404, 1405, 1406, 1407, 1408, 1409
1410, 1411, 1412, 1413, 1414, 1415, 1416, 1417, 1418, 1419, 1420, 1421, 1422, 1423, 1424, 1425
1426, 1427, 1428, 1429, 1430, 1431, 1432, 1433, 1434, 1435, 1436, 1437, 1438, 1439, 1440, 1441
1442, 1443, 1444, 1445, 1446, 1447, 1448, 1449, 1450, 1451, 1452, 1453, 1454, 1455, 1456, 1457
1458, 1459, 1460, 1461, 1462
*Elset, elset=_PickedSet45, internal
356,  357,  358,  359,  360,  361,  362,  363,  364,  365,  366,  367,  368,  369,  370,  371
372,  373,  374,  375,  376,  377,  378,  379,  380,  381,  382,  383,  384,  385,  386,  387
388,  389,  390,  391,  392,  393,  394,  395,  396,  397,  398,  399,  400,  401,  402,  403
404,  405,  406,  407,  408,  409,  410,  411,  412,  413,  414,  415,  416,  417,  418,  419
420,  421,  422,  423,  424,  425,  426,  427,  428,  429,  430,  431,  432,  433,  434,  435
436,  437,  438,  439,  440,  441,  442,  443,  444,  445,  446,  447,  448,  449,  450,  451
452,  453,  454,  455,  456,  457,  458,  459,  460,  461,  462,  463,  464,  465,  466,  467
468,  469,  470,  471,  472,  473,  474,  475,  476,  477,  478,  479,  480,  481,  482,  483
484,  485,  486,  487,  488,  489,  490,  491,  492,  493,  494,  495,  496,  497,  498,  499
500,  501,  502,  503,  504,  505,  506,  507,  508,  509,  510,  511,  512, 1201, 1202, 1203
1204, 1205, 1206, 1207, 1208, 1209, 1210, 1211, 1212, 1213, 1214, 1215, 1216, 1217, 1218, 1219
1220, 1221, 1222, 1223, 1224, 1225, 1226, 1227, 1228, 1229, 1230, 1231, 1232, 1233, 1234, 1235
1236, 1237, 1238, 1239, 1240, 1241, 1242, 1243, 1244, 1245, 1246, 1247, 1248, 1249, 1250, 1251
1252, 1253, 1254, 1255, 1256, 1257, 1258, 1259, 1260, 1261, 1262, 1263, 1264, 1265, 1266, 1267
1268, 1269, 1270, 1271, 1272, 1273, 1274, 1275, 1276, 1277, 1278, 1279, 1280, 1281, 1282, 1283
1284, 1285, 1286, 1287, 1288, 1289, 1290, 1291, 1292, 1293, 1294, 1295, 1296, 1297, 1298, 1299
1300, 1301, 1302, 1303, 1304, 1305, 1306, 1307, 1308, 1309, 1310, 1311, 1312, 1313, 1314, 1315
1316, 1317, 1318, 1319, 1320, 1321, 1322, 1323, 1324, 1325, 1326, 1327, 1328, 1329, 1330, 1331
1332, 1333, 1334, 1335, 1336
*Nset, nset=_PickedSet46, internal
1,   2,   3,   4,   5,   6,   7,   8,   9,  15,  16,  17,  18,  19,  20,  21
22,  23,  24,  25,  26,  27,  28,  29,  30,  31,  32,  33,  34,  35,  36,  37
38,  39,  40,  41,  42,  43,  44,  45,  46,  47,  48,  49,  50,  51,  52,  53
54,  55,  56,  57,  58,  59,  60,  61,  62,  63,  64,  65,  66,  67,  68,  69
70,  71,  72,  73,  74,  75,  76,  77,  78,  79,  80,  81,  82,  83,  84,  85
86,  87,  88,  89,  90,  91,  92,  93,  94,  95,  96,  97,  98,  99, 100, 101
102, 103, 104, 105, 106, 107, 108, 109, 110, 111, 112, 113, 114, 115, 116, 117
118, 331, 332, 333, 334, 335, 336, 337, 338, 339, 340, 341, 342, 343, 344, 345
346, 347, 348, 349, 350, 351, 352, 353, 354, 355, 356, 357, 358, 359, 360, 361
362, 363, 364, 365, 366, 367, 368, 369, 370, 371, 372, 373, 374, 375, 376, 377
378, 379, 380, 381, 382, 383, 384, 385, 386, 387, 388, 389, 390, 391, 392, 393
394, 395, 396, 397, 398, 399, 400, 401, 402, 403, 404, 405, 406, 407, 408, 409
410, 411, 412, 413, 414, 415, 416, 417, 418, 419, 420, 421, 422, 423, 424, 425
426, 427, 428, 429, 430, 431, 432, 433, 434, 435, 436, 437, 438, 439, 440, 441
442, 443, 444, 445, 446, 447, 448, 449, 450, 451, 452, 453, 454, 455, 456, 457
458, 459, 460, 461, 462, 463, 464, 465, 466, 467, 468, 469, 470, 471, 472, 473
474, 475, 476, 477, 478, 479, 480, 481, 482, 483, 484, 485, 486, 487, 488, 489
490, 491, 492, 493, 494, 495, 496, 497, 498, 499, 500, 501, 502, 503, 504, 505
506, 507, 508, 509, 510, 511, 512, 513, 514, 515, 516, 517, 518, 519, 520, 521
522, 523, 524, 525, 526, 527, 528, 529, 530, 531, 532, 533, 534, 535, 536, 537
** ... 6 like lines cut
*Elset, elset=_PickedSet46, internal, generate
1,  355,    1
*Nset, nset=_PickedSet47, internal, generate
1,  2082,     1
*Elset, elset=_PickedSet47, internal, generate
1,  2021,     1
** Section: PRMPCM
*Shell Section, elset=_PickedSet46, material=PCM_Hyper_Analog
6., 5
** Section: PCM
*Shell Section, elset=_PickedSet45, material=PCM_Hyper_Analog
4., 5
** Section: ICM
*Shell Section, elset=_PickedSet44, material=PCM_HYPER100
2., 5
*Nonstructural Mass, elset=_PickedSet47, units=MASS PER VOLUME
1.1e-06,
*End Part
**
*Part, name=OPAL325_PBody
*Node
1,-18.73729276105587,-10.852859365367749, -28.74087618061445
2,-16.809193378204583,-10.539317844617301, -28.958925538183493
3,-14.881554853065971,-10.212698619395411, -29.174029516541452
4,-12.948539250648025,-9.905383132634938, -29.373510607295586
5,-11.004791842517669,-9.650835059754826, -29.544115844648687
6,-9.047680935926174,-9.483566593604024, -29.671677625667172
7,-7.080985416690979,-9.414807072232378, -29.752808142303152
8,-5.110938589834582,-9.431749833592391, -29.79722585617739
9,-3.1421419090386635,-9.519692230163855, -29.818100348584835
10,-1.1774197285859387,-9.66511556093073, -29.827740181694594
11,0.7820832667917372,-9.859553033477312, -29.832109291729893
12,2.736049806254222,-10.097861256913234, -29.83381521990654
13,4.685066468990474,-10.370622502333589, -29.835653098778934
14,6.6303483857811045,-10.66568607601124, -29.8419892213348
15,8.573164976251725,-10.971319067123261, -29.850528151684074
16,10.514449570413104,-11.278374071064775, -29.81175362377418
17,12.44909022188694,-11.573245258911697, -29.624771146106866
18,13.818910158088073,-11.750321441796473, -29.19606021128655
19,-20.67041647156276,-11.120372392697789, -28.531007967193574
20,14.338919955830898,-11.77255941470986, -28.650640758579797
** ... 152 like lines cut
*Element, type=S3R
1,  79,  80,  73
2, 164, 165, 149
*Element, type=S4R
3, 150, 157, 139, 137
4,  47, 157, 150,  46
5, 151, 152, 138, 127
6,  46, 150, 152,  45
7, 130,  43,  44, 151
8, 129,  42,  43, 130
9,   2, 139, 157,   1
10, 129, 130, 128, 123
11, 148, 126, 120, 118
12, 152, 150, 137, 138
13, 152, 151,  44,  45
14,   3, 136, 139,   2
15, 137, 139, 136, 133
16, 138, 137, 133, 134
17, 127, 121, 125, 128
18, 122, 125, 121, 124
19, 123, 122, 119, 118
20, 124, 106, 163, 103
21, 102,  35,  36, 159
22, 101, 102, 103, 163
** ... 124 like lines cut
*Nset, nset=_PickedSet5, internal, generate
1,  172,    1
*Elset, elset=_PickedSet5, internal, generate
1,  146,    1
** Section: PBody
*Shell Section, elset=_PickedSet5, material=PARAVAG_H_highdensity
2., 5
*End Part
**
*Part, name=OPAL325_PM_mid
*Node
1,-57.469814299999626,-11.551424000001361, -26.319114699996703
2,-55.792854300000386,-9.705298419997689, -26.046205499997086
3,-54.06757739999995,-7.903002740000375, -25.781564700000217
4,-52.29695509999985,-6.144021990001875, -25.52504540000018
5,-50.48428340000001,-4.427240370000504, -25.276395800001183
6,-48.63307949999998,-2.750966790000575, -25.035263100000748
7,-46.747020700000064,-1.1129769100002704, -24.801202799999942
8,-44.829818700000146,0.4894122780003727, -24.57369420000066
9,-42.88519289999985,2.0592637099995272, -24.352151899999853
10,-40.91675570000001,3.5999288599999772, -24.13594630000057
11,-38.927871700000054,5.114772799999628, -23.924446099999727
12,-36.91790389999983,6.602215290000117, -23.717931700000577
13,-34.88211439999952,8.054974560000346, -23.517707800004814
14,-32.815811199999416,9.465040210002371, -23.325201000004654
15,-30.71458239999933,10.82375429999854, -23.141941100002214
16,-28.574356100000045,12.121618300000478, -22.969591099999093
17,-26.391525300000865,13.348128300001235, -22.80996699999821
18,-24.163127899999807,14.491639100001521, -22.66506960000129
19,-21.88712880000091,15.539296199998716, -22.537073100002317
20,-19.56278039999927,16.47707940000157, -22.428327600001694
** ... 372 like lines cut
*Element, type=S3R
1, 273, 272, 274
2, 244, 246, 234
3, 270, 263, 262
4, 352, 219, 222
5, 221, 223, 222
6, 331, 209, 208
7, 173, 175, 383
8, 379, 384, 342
9, 255, 268, 258
10, 145, 127, 124
11, 163, 157, 164
12, 281, 271, 282
13, 370, 369, 288
*Element, type=S4R
14,   2, 320, 349,   1
15, 120,  52,   1, 349
16, 118, 119, 365, 367
17, 117, 319, 318, 116
18, 367, 319, 117, 118
19, 317, 115, 116, 318
20, 114, 338, 316, 321
21, 310, 311, 339, 295
22, 310, 295, 296, 348
23, 284, 281, 295, 339
24, 295, 281, 282, 296
25, 272, 270, 281, 284
26, 271, 281, 270, 261
27, 262, 385, 261, 270
28, 250, 252, 251, 249
29, 242, 344, 241, 240
30, 244, 234, 389, 241
31, 233, 235, 232, 226
32, 338, 317, 311, 310
33, 297, 284, 339, 357
** ... 304 like lines cut
*Nset, nset=_PickedSet5, internal, generate
1,  392,    1
*Elset, elset=_PickedSet5, internal, generate
1,  337,    1
** Section: PBody
*Shell Section, elset=_PickedSet5, material=PARAVAG_H_highdensity
2., 5
*End Part
**
*Part, name=OPAL325_Para_v6
*Node
1,  -25.8009739,   11.8042965,  -22.4799175
2,   -20.843029, -0.473626733,  -6.08968401
3,  -25.7714252,   11.7532816,  -22.4842796
4,   -20.214426,   2.15900683,  -23.3048115
5,  -19.6363258,  0.160134405,  -27.1134644
6,  -20.2860661,   3.14858842,  -19.5615292
7,   18.4495735,   8.87388229,  -22.5602055
8,   19.0809364,  -3.87206864,  -4.89342737
9,   17.6541882,  -1.83392072,  -10.2631245
10,   17.1224346, -0.398663163,  -15.1348381
11,   16.7179661,  0.183552921,  -19.0713673
12,   15.9324493,  0.172837824,  -22.3192291
13,   14.2028704, -0.683116853,  -27.2061768
14,  -25.7050037,   11.6703243,  -22.2305298
15,  -20.4862919,   2.19752336,  -10.2206936
16,  -25.8520317,   11.9009781,  -22.4409065
17,  -20.4873924,   3.48509598,  -14.7648649
18,  -25.6829281,   11.5119658,   -22.089674
19,  -25.5648823,   11.2196341,  -21.6994305
20,  -25.4468346,   10.9273024,  -21.3091869
** ... 315 like lines cut
*Element, type=T3D2
1,  1, 18
2, 18, 19
3, 19, 20
4, 20, 21
5, 21, 22
6, 22, 23
7, 23, 24
8, 24, 25
9, 25, 26
10, 26, 27
11, 27, 28
12, 28, 29
13, 29, 30
14, 30, 31
15, 31, 32
16, 32, 33
17, 33, 34
18, 34, 35
19, 35, 36
20, 36, 37
** ... 312 like lines cut
*Nset, nset=_PickedSet4, internal, generate
1,  17,   1
*Nset, nset=_PickedSet13, internal
1,   2,   3,   6,   7,   8,   9,  10,  11,  14,  15,  16,  17,  18,  19,  20
21,  22,  23,  24,  25,  26,  27,  28,  29,  30,  31,  32,  33,  34,  35,  36
37,  38,  39,  40,  41,  42,  43,  44,  45,  46,  47,  48,  49,  50,  51,  52
53,  54,  55,  56,  57,  58, 107, 108, 109, 110, 111, 112, 113, 114, 115, 116
117, 118, 119, 120, 121, 122, 123, 124, 125, 126, 127, 128, 129, 130, 131, 132
133, 134, 135, 136, 137, 138, 139, 140, 141, 142, 143, 144, 145, 146, 147, 148
149, 150, 151, 152, 153, 154, 155, 156, 157, 158, 159, 160, 161, 162, 163, 164
165, 166, 167, 168, 169, 170, 171, 172, 173, 174, 175, 176, 177, 178, 179, 180
181, 182, 183, 184, 185, 186, 187, 188, 189, 190, 191, 192, 193, 194, 195, 196
197, 198, 199, 200, 201, 202, 203, 204, 205, 206, 207, 208, 209, 210, 211, 212
213, 214, 215, 216, 217, 218, 219, 220, 221, 222, 223, 224, 225, 226, 227, 228
229, 230, 231, 232, 233, 234, 235, 236, 237, 238, 239, 240, 241, 242, 282, 283
284, 285, 286, 287, 288, 289, 290, 291, 292, 293, 294, 295, 296, 297, 298, 299
300, 301, 302, 303, 304, 305, 306, 307, 308, 309, 310, 311, 312, 313, 314, 315
316, 317, 318, 319, 320, 321, 322, 323, 324, 325, 326, 327, 328, 329, 330, 331
332, 333, 334, 335
*Elset, elset=_PickedSet13, internal
1,   2,   3,   4,   5,   6,   7,   8,   9,  10,  11,  12,  13,  14,  15,  16
17,  18,  19,  20,  21,  22,  23,  24,  25,  26,  27,  28,  29,  30,  31,  32
33,  34,  35,  36,  37,  38,  39,  40,  41,  42,  94,  95,  96,  97,  98,  99
100, 101, 102, 103, 104, 105, 106, 107, 108, 109, 110, 111, 112, 113, 114, 115
116, 117, 118, 119, 120, 121, 122, 123, 124, 125, 126, 127, 128, 129, 130, 131
132, 133, 134, 135, 136, 137, 138, 139, 140, 141, 142, 143, 144, 145, 146, 147
148, 149, 150, 151, 152, 153, 154, 155, 156, 157, 158, 159, 160, 161, 162, 163
164, 165, 166, 167, 168, 169, 170, 171, 172, 173, 174, 175, 176, 177, 178, 179
180, 181, 182, 183, 184, 185, 186, 187, 188, 189, 190, 191, 192, 193, 194, 195
196, 197, 198, 199, 200, 201, 202, 203, 204, 205, 206, 207, 208, 209, 210, 211
212, 213, 214, 215, 216, 217, 218, 219, 220, 221, 222, 223, 224, 225, 226, 227
228, 229, 230, 231, 232, 233, 234, 276, 277, 278, 279, 280, 281, 282, 283, 284
285, 286, 287, 288, 289, 290, 291, 292, 293, 294, 295, 296, 297, 298, 299, 300
301, 302, 303, 304, 305, 306, 307, 308, 309, 310, 311, 312, 313, 314, 315, 316
317, 318, 319, 320, 321, 322, 323, 324, 325, 326, 327, 328, 329, 330, 331, 332
*Nset, nset=_PickedSet14, internal
1,   3,   4,   5,   7,  12,  13,  59,  60,  61,  62,  63,  64,  65,  66,  67
68,  69,  70,  71,  72,  73,  74,  75,  76,  77,  78,  79,  80,  81,  82,  83
84,  85,  86,  87,  88,  89,  90,  91,  92,  93,  94,  95,  96,  97,  98,  99
100, 101, 102, 103, 104, 105, 106, 243, 244, 245, 246, 247, 248, 249, 250, 251
252, 253, 254, 255, 256, 257, 258, 259, 260, 261, 262, 263, 264, 265, 266, 267
268, 269, 270, 271, 272, 273, 274, 275, 276, 277, 278, 279, 280, 281
*Elset, elset=_PickedSet14, internal
43,  44,  45,  46,  47,  48,  49,  50,  51,  52,  53,  54,  55,  56,  57,  58
59,  60,  61,  62,  63,  64,  65,  66,  67,  68,  69,  70,  71,  72,  73,  74
75,  76,  77,  78,  79,  80,  81,  82,  83,  84,  85,  86,  87,  88,  89,  90
91,  92,  93, 235, 236, 237, 238, 239, 240, 241, 242, 243, 244, 245, 246, 247
248, 249, 250, 251, 252, 253, 254, 255, 256, 257, 258, 259, 260, 261, 262, 263
264, 265, 266, 267, 268, 269, 270, 271, 272, 273, 274, 275
** Section: Para-wire
*Solid Section, elset=_PickedSet13, material=PARAVAG_H_Analog
1.,
** Section: Para-wire-high
*Solid Section, elset=_PickedSet14, material=ATFP_HYPER
1.,
*Element, type=ROTARYI, elset=_PickedSet4_Inertia-1_
333, 1
334, 2
335, 3
336, 4
337, 5
338, 6
339, 7
340, 8
341, 9
342, 10
343, 11
344, 12
345, 13
346, 14
347, 15
348, 16
349, 17
*Rotary Inertia, elset=_PickedSet4_Inertia-1_
0.0001, 0.0001, 0.0001, 0., 0., 0.
*End Part
**
*Part, name=OPAL325_RefPlane_MirrorN_0318_20
*Node
1,  -59.0958939,  -16.6977406,  -27.1417942
2,   45.8929558,  -16.6977406,  -29.2732258
3,   45.8929558,   18.8569298,  -23.3613911
4,  -59.0958939,   18.8569298,  -21.2299595
5,  -48.5970078,  -16.6977406,  -27.3549366
6,  -38.0981216,  -16.6977406,  -27.5680809
7,  -27.5992374,  -16.6977406,  -27.7812233
8,  -17.1003532,  -16.6977406,  -27.9943657
9,  -6.60146761,  -16.6977406,    -28.20751
10,   3.89741731,  -16.6977406,  -28.4206524
11,   14.3963022,  -16.6977406,  -28.6337948
12,   24.8951874,  -16.6977406,  -28.8469391
13,   35.3940735,  -16.6977406,  -29.0600815
14,   45.8929558,  -4.84618378,  -27.3026142
15,   45.8929558,     7.005373,  -25.3320026
16,   35.3940735,   18.8569298,  -23.1482487
17,   24.8951874,   18.8569298,  -22.9351044
18,   14.3963022,   18.8569298,   -22.721962
19,   3.89741731,   18.8569298,  -22.5088196
20,  -6.60146761,   18.8569298,  -22.2956753
** ... 31 like lines cut
*Element, type=S4R
1, 26, 50, 51, 25
2, 42, 50,  5,  6
3, 40, 22, 23, 41
4, 43, 38, 28, 46
5, 36, 19, 20, 37
6, 18, 29, 30, 17
7, 45, 44, 34, 31
8, 32, 16, 17, 30
9, 13,  2, 14, 33
10, 30, 44, 45, 32
11, 15,  3, 16, 32
12, 34, 35, 10, 11
13, 35, 49, 46, 28
14, 27, 37, 20, 21
15,  8,  9, 28, 38
16, 43, 47, 39, 38
17, 41, 51, 48, 47
18, 25, 51, 24,  4
19,  1,  5, 50, 26
20, 38, 39,  7,  8
** ... 17 like lines cut
*End Part
**
*Part, name=OPAL325_US_v6
*Node
1,  -23.3392544,  -9.19381237,   13.4449682
2,  -42.9855118,  -48.8706436,   30.1705265
3,   22.9780941,  -7.60863209,   7.19995117
4,   41.3603134,  -43.5253143,    36.219883
5,   21.9963531,   -11.189353,   17.5794888
6,   38.2782516,  -43.6821213,     41.80653
7,   22.7610664,  -9.07034016,   11.7760801
8,   40.5875053,  -43.5851135,   38.2664413
9,  -22.5048847,  -8.41003799,   8.29969406
10,  -46.1745834,   -47.645504,   28.5606918
11,       -24.25,  -10.0005999,   19.7000008
12,  -37.7613182,  -49.0136185,   31.9891529
13,  -23.5460567,  -9.61146355,    13.621027
14,  -23.7528591,  -10.0291147,   13.7970858
15,  -23.9596615,  -10.4467649,   13.9731436
16,  -24.1664658,  -10.8644161,   14.1492023
17,  -24.3732681,  -11.2820673,   14.3252611
18,  -24.5800705,  -11.6997175,   14.5013199
19,  -24.7868729,  -12.1173687,   14.6773777
20,  -24.9936752,  -12.5350199,   14.8534365
** ... 547 like lines cut
*Element, type=T3D2
1,   1,  13
2,  13,  14
3,  14,  15
4,  15,  16
5,  16,  17
6,  17,  18
7,  18,  19
8,  19,  20
9,  20,  21
10,  21,  22
11,  22,  23
12,  23,  24
13,  24,  25
14,  25,  26
15,  26,  27
16,  27,  28
17,  28,  29
18,  29,  30
19,  30,  31
20,  31,  32
** ... 541 like lines cut
*Nset, nset=_PickedSet4, internal, generate
1,  12,   1
*Nset, nset=_PickedSet5, internal, generate
1,  567,    1
*Elset, elset=_PickedSet5, internal, generate
1,  561,    1
** Section: US-wire
*Solid Section, elset=_PickedSet5, material=US_Analog
1.,
*Element, type=ROTARYI, elset=_PickedSet4_Inertia-1_
562, 1
563, 2
564, 3
565, 4
566, 5
567, 6
568, 7
569, 8
570, 9
571, 10
572, 11
573, 12
*Rotary Inertia, elset=_PickedSet4_Inertia-1_
0.0001, 0.0001, 0.0001, 0., 0., 0.
*End Part
**
**
** ASSEMBLY
**
*Assembly, name=Assembly
**
*Instance, name=OPAL325_ATFP-1, part=OPAL325_ATFP
*End Instance
**
*Instance, name=OPAL325_GIfiller-1, part=OPAL325_GIfiller
*End Instance
**
*Instance, name=OPAL325_LA-1, part=OPAL325_LA
*End Instance
**
*Instance, name=OPAL325_ATLA-1, part=OPAL325_ATLA
*End Instance
**
*Instance, name=OPAL325_CL_v6-1, part=OPAL325_CL_v6
*End Instance
**
*Instance, name=OPAL325_Para_v6-1, part=OPAL325_Para_v6
*End Instance
**
*Instance, name=OPAL325_AVW_v6-1, part=OPAL325_AVW_v6
*End Instance
**
*Instance, name=OPAL325_US_v6-1, part=OPAL325_US_v6
*End Instance
**
*Instance, name=OPAL325_PBody-1, part=OPAL325_PBody
*End Instance
**
*Instance, name=OPAL325_PM_mid-1, part=OPAL325_PM_mid
*End Instance
**
**Instance, name=OPAL325_RefPlane_MirrorN_0318_20-1, part=OPAL325_RefPlane_MirrorN_0318_20
**End Instance
**
*Element, type=CONN3D2
1, OPAL325_AVW_v6-1.11, OPAL325_Para_v6-1.8
2, OPAL325_AVW_v6-1.12, OPAL325_Para_v6-1.2
3, OPAL325_AVW_v6-1.14, OPAL325_Para_v6-1.15
4, OPAL325_AVW_v6-1.16, OPAL325_Para_v6-1.17
5, OPAL325_AVW_v6-1.18, OPAL325_Para_v6-1.6
6, OPAL325_AVW_v6-1.20, OPAL325_Para_v6-1.4
7, OPAL325_AVW_v6-1.26, OPAL325_Para_v6-1.5
8, OPAL325_AVW_v6-1.13, OPAL325_Para_v6-1.9
9, OPAL325_AVW_v6-1.15, OPAL325_Para_v6-1.10
10, OPAL325_AVW_v6-1.17, OPAL325_Para_v6-1.11
11, OPAL325_AVW_v6-1.19, OPAL325_Para_v6-1.12
12, OPAL325_AVW_v6-1.21, OPAL325_Para_v6-1.13
*Connector Section, elset=Wire-1-Set-1
Weld,
*Element, type=CONN3D2
13, OPAL325_AVW_v6-1.2, OPAL325_CL_v6-1.1
14, OPAL325_AVW_v6-1.5, OPAL325_CL_v6-1.16
15, OPAL325_US_v6-1.7, OPAL325_AVW_v6-1.1
16, OPAL325_AVW_v6-1.4, OPAL325_CL_v6-1.18
17, OPAL325_US_v6-1.11, OPAL325_AVW_v6-1.3
18, OPAL325_AVW_v6-1.6, OPAL325_US_v6-1.9
19, OPAL325_CL_v6-1.5, OPAL325_AVW_v6-1.12
20, OPAL325_AVW_v6-1.10, OPAL325_CL_v6-1.19
21, OPAL325_CL_v6-1.3, OPAL325_AVW_v6-1.8
22, OPAL325_CL_v6-1.21, OPAL325_AVW_v6-1.6
23, OPAL325_US_v6-1.1, OPAL325_AVW_v6-1.2
24, OPAL325_CL_v6-1.23, OPAL325_AVW_v6-1.3
25, OPAL325_US_v6-1.5, OPAL325_AVW_v6-1.4
26, OPAL325_AVW_v6-1.1, OPAL325_CL_v6-1.8
27, OPAL325_US_v6-1.3, OPAL325_AVW_v6-1.5
28, OPAL325_AVW_v6-1.7, OPAL325_CL_v6-1.10
29, OPAL325_AVW_v6-1.9, OPAL325_CL_v6-1.14
30, OPAL325_AVW_v6-1.11, OPAL325_CL_v6-1.12
*Connector Section, elset=Wire-2-Set-1
Weld,
*Nset, nset=Wire-1-Set-1, instance=OPAL325_AVW_v6-1
11, 12, 13, 14, 15, 16, 17, 18, 19, 20, 21, 26
*Nset, nset=Wire-1-Set-1, instance=OPAL325_Para_v6-1
2,  4,  5,  6,  8,  9, 10, 11, 12, 13, 15, 17
*Elset, elset=Wire-1-Set-1, generate
1,  12,   1
*Nset, nset=Wire-2-Set-1, instance=OPAL325_AVW_v6-1, generate
1,  12,   1
*Nset, nset=Wire-2-Set-1, instance=OPAL325_CL_v6-1
1,  3,  5,  8, 10, 12, 14, 16, 18, 19, 21, 23
*Nset, nset=Wire-2-Set-1, instance=OPAL325_US_v6-1, generate
1,  11,   2
*Elset, elset=Wire-2-Set-1, generate
13,  30,   1
*Nset, nset=_PickedSet487, internal, instance=OPAL325_ATFP-1
2, 4
*Nset, nset=_PickedSet487, internal, instance=OPAL325_ATLA-1
2, 4
*Nset, nset=_PickedSet542, internal, instance=OPAL325_CL_v6-1
2,  4,  6,  7,  9, 11, 13, 15, 17, 20, 22, 24
*Nset, nset=_PickedSet542, internal, instance=OPAL325_US_v6-1, generate
2,  12,   2
*Nset, nset=_PickedSet545, internal, instance=OPAL325_ATFP-1
1, 3
*Nset, nset=_PickedSet545, internal, instance=OPAL325_Para_v6-1
1,  3,  7, 14, 16
*Elset, elset=_PickedSet545, internal, instance=OPAL325_Para_v6-1
43, 308
*Nset, nset=_PickedSet586, internal, instance=OPAL325_ATLA-1, generate
1,  4,  1
*Nset, nset=_PickedSet610, internal, instance=OPAL325_GIfiller-1
3,
*Nset, nset=_PickedSet612, internal, instance=OPAL325_AVW_v6-1
22,
*Nset, nset=_PickedSet614, internal, instance=OPAL325_AVW_v6-1
25,
*Nset, nset=_PickedSet646, internal, instance=OPAL325_ATLA-1
1,    2,    5,    6,    7,    8,    9,   10,   11,   12,   13,   14,   15,   16,   17,   18
19,   20,   21,   22,   23,   24,   25,   26,   27,   28,   29,   30,   31,   32,   33,   34
35,   36,   37,   38,   39,   40,   41,   42,   43,   44,   45,   46,   47,   48,   49,   50
51,   52,   53,   54,   55,   56,   57,   58,   59,   60,   61,   62,   63,   64,   65,   66
67,   68,   69,   70,   71,   72,   73,   74,   75,   76,   77,   78,   79,   80,   81,   82
83,   84,   85,   86,   87,   88,   89,   90,   91,   92,   93,   94,   95,   96,   97,   98
99,  100,  101,  102,  103,  104,  105,  106,  107,  108,  109,  110,  111,  112,  113,  114
115,  116,  117,  118,  119,  120,  121,  122,  123,  124,  125,  126,  127,  128,  129,  130
131,  132,  133,  134,  135,  136,  137,  138,  139,  140,  141,  142,  143,  144,  145,  146
147,  148,  149,  150,  151,  152,  153,  154,  155,  156,  157,  158,  159,  160,  161,  162
163,  164,  165,  166,  167,  168,  169,  170,  171,  172,  173,  174,  175,  176,  177,  178
179,  180,  181,  182,  183,  184,  185,  186,  187,  188,  189,  190,  191,  192,  193,  194
195,  196,  197,  198,  199,  200,  201,  202,  203,  204,  205,  206,  207,  208,  209,  210
211,  212,  213,  214,  215,  216,  217,  218,  219,  220,  221,  222,  223,  224,  225,  226
227,  228,  229,  230,  231,  232,  233,  234,  235,  236,  237,  238,  239,  240,  241,  242
243,  244,  245,  246,  247,  248,  249,  250,  251,  252,  253,  254,  255,  256,  257,  258
259,  260,  261,  262,  263,  264,  265,  266,  267,  268,  269,  270,  271,  272,  273,  274
275,  276,  277,  278,  279,  280,  281,  282,  283,  284,  285,  286,  287,  288,  289,  290
291,  292,  293,  294,  295,  296,  297,  298,  299,  300,  301,  302,  303,  304,  305,  306
307,  308,  309,  310,  311,  312,  313,  314,  315,  316,  317,  318,  319,  320,  321,  322
** ... 67 like lines cut
*Elset, elset=_PickedSet646, internal, instance=OPAL325_ATLA-1, generate
1,  1377,     1
*Nset, nset=_PickedSet661, internal, instance=OPAL325_ATLA-1
3,    4, 1381, 1382, 1383, 1384, 1385, 1386, 1387, 1388, 1389, 1390, 1391, 1392, 1393, 1394
1395, 1396, 1397, 1398, 1399, 1400, 1401, 1402, 1403, 1404, 1405, 1406, 1407, 1408, 1409, 1410
1411, 1412, 1413, 1414, 1415, 1416, 1417, 1418, 1419, 1420, 1421, 1422, 1423, 1424, 1425, 1426
1427, 1428, 1429, 1430, 1431, 1432, 1433, 1434, 1435, 1436, 1437, 1438, 1439, 1440, 1441, 1442
1443, 1444, 1445, 1446, 1447, 1448, 1449, 1450, 1451, 1452, 1453, 1454, 1455, 1456, 1457, 1458
1459, 1460, 1461, 1462, 1463, 1464, 1465, 1466, 1467, 1468, 1469, 1470, 1471, 1472, 1473, 1474
1475, 1476, 1477, 1478, 1479, 1480, 1481, 1482, 1483, 1484, 1485, 1486, 1487, 1488, 1489, 1490
1491, 1492, 1493, 1494, 1495, 1496, 1497, 1498, 1499, 1500, 1501, 1502, 1503, 1504, 1505, 1506
1507, 1508, 1509, 1510, 1511, 1512, 1513, 1514, 1515, 1516, 1517, 1518, 1519, 1520, 1521, 1522
1523, 1524, 1525, 1526, 1527, 1528, 1529, 1530, 1531, 1532, 1533, 1534, 1535, 1536, 1537, 1538
1539, 1540, 1541, 1542, 1543, 1544, 1545, 1546, 1547, 1548, 1549, 1550, 1551, 1552, 1553, 1554
1555, 1556, 1557, 1558, 1559, 1560, 1561, 1562, 1563, 1564, 1565, 1566, 1567, 1568, 1569, 1570
1571, 1572, 1573, 1574, 1575, 1576, 1577, 1578, 1579, 1580, 1581, 1582, 1583, 1584, 1585, 1586
1587, 1588, 1589, 1590, 1591, 1592, 1593, 1594, 1595, 1596, 1597, 1598, 1599, 1600, 1601, 1602
1603, 1604, 1605, 1606, 1607, 1608, 1609, 1610, 1611, 1612, 1613, 1614, 1615, 1616, 1617, 1618
1619, 1620, 1621, 1622, 1623, 1624, 1625, 1626, 1627, 1628, 1629, 1630, 1631, 1632, 1633, 1634
1635, 1636, 1637, 1638, 1639, 1640, 1641, 1642, 1643, 1644, 1645, 1646, 1647, 1648, 1649, 1650
1651, 1652, 1653, 1654, 1655, 1656, 1657, 1658, 1659, 1660, 1661, 1662, 1663, 1664, 1665, 1666
1667, 1668, 1669, 1670, 1671, 1672, 1673, 1674, 1675, 1676, 1677, 1678, 1679, 1680, 1681, 1682
1683, 1684, 1685, 1686, 1687, 1688, 1689, 1690, 1691, 1692, 1693, 1694, 1695, 1696, 1697, 1698
** ... 67 like lines cut
*Elset, elset=_PickedSet661, internal, instance=OPAL325_ATLA-1, generate
1378,  2754,     1
*Nset, nset=_PickedSet671, internal, instance=OPAL325_PM_mid-1, generate
1,  53,   1
*Elset, elset=_PickedSet671, internal, instance=OPAL325_PM_mid-1
14,  15,  40,  49,  53,  54,  56,  59,  60,  63,  64,  65,  66,  67,  68,  76
83,  87,  88,  91,  96,  97,  99, 101, 103, 109, 111, 113, 114, 118, 120, 123
124, 154, 155, 163, 164, 165, 167, 171, 172, 174, 175, 176, 256, 278, 282, 287
320, 321, 322, 323
*Nset, nset=_PickedSet680, internal, instance=OPAL325_PBody-1
20,  21,  22,  23,  24,  25, 140, 141, 142, 143, 144
*Nset, nset=_PickedSet680, internal, instance=OPAL325_PM_mid-1, generate
101,  105,    1
*Elset, elset=_PickedSet680, internal, instance=OPAL325_PBody-1
46,  49,  59,  60,  61,  62,  65, 108, 114, 115
*Elset, elset=_PickedSet680, internal, instance=OPAL325_PM_mid-1
247, 251, 253, 312
*Nset, nset=_PickedSet681, internal, instance=OPAL325_LA-1
3,   4,   8,   9,  52,  53,  54,  55,  56,  57,  58,  59, 101, 102, 103, 104
105, 106
*Elset, elset=_PickedSet681, internal, instance=OPAL325_LA-1
31,  33,  34,  87,  91,  94, 141, 143, 153, 207, 208, 210, 211, 212, 239, 333
*Nset, nset=_PickedSet684, internal, instance=OPAL325_LA-1
12,  13,  14, 220, 221, 222, 223, 224, 225, 226, 227, 228, 229, 230, 231, 232
233, 234, 235, 236, 237, 238, 239, 240, 241, 242, 243, 244, 245, 246, 247, 248
275, 276, 277, 278, 279, 280, 281, 282, 283, 284, 285, 286, 287, 288, 289, 290
291, 292, 293, 294, 295, 296, 297, 298, 299, 300, 301, 302, 303
*Elset, elset=_PickedSet684, internal, instance=OPAL325_LA-1
564,  566,  626,  659,  661,  668,  671,  672,  674,  679,  701,  709,  741,  744,  748,  860
936,  943,  987, 1000, 1014, 1031, 1054, 1067, 1104, 1105, 1114, 1129, 1136, 1142, 1374, 1388
1462, 1501, 1502, 1511, 1558, 1560, 1561, 1562, 1568, 1573, 1590, 1592, 1600, 1607, 1619, 1709
1760, 1862, 1876, 1950, 1952, 1958, 1959, 1961, 1962, 1976, 1979, 1980
*Nset, nset=_PickedSet685, internal, instance=OPAL325_LA-1
2,   6,  10,  11, 151, 152, 153, 154, 155, 156, 157, 158, 159, 160, 161, 265
266, 267, 268, 269, 270, 271, 272, 273, 274
*Elset, elset=_PickedSet685, internal, instance=OPAL325_LA-1
372,  378,  381,  384,  429,  430,  433,  435,  439,  440,  449,  453, 1230, 1235, 1237, 1238
1250, 1251, 1252, 1253, 1254, 1256, 1310
*Nset, nset=_PickedSet709, internal, instance=OPAL325_LA-1
2,   3,   6,   9,  40,  41,  42,  43,  44,  45,  46,  47,  48,  49,  50,  51
107, 108, 109, 110, 111, 112, 113, 114, 115, 116, 117, 118
*Elset, elset=_PickedSet709, internal, instance=OPAL325_LA-1
52,  53,  55,  65,  68,  72,  76,  80,  81,  82,  83,  84, 135, 185, 191, 192
196, 197, 274, 277, 281, 284, 288, 307, 338, 353
*Elset, elset=__PickedSurf544_SPOS, internal, instance=OPAL325_AVW_v6-1, generate
1,  277,    1
*Surface, type=ELEMENT, name=_PickedSurf544, internal
__PickedSurf544_SPOS, SPOS
*Elset, elset=__PickedSurf555_SNEG, internal, instance=OPAL325_AVW_v6-1, generate
1,  277,    1
*Surface, type=ELEMENT, name=_PickedSurf555, internal
__PickedSurf555_SNEG, SNEG
*Elset, elset=__PickedSurf560_SPOS, internal, instance=OPAL325_AVW_v6-1, generate
1,  277,    1
*Surface, type=ELEMENT, name=_PickedSurf560, internal
__PickedSurf560_SPOS, SPOS
*Elset, elset=__PickedSurf568_S3, internal, instance=OPAL325_GIfiller-1
87,   206,   335,   353,   445,   654,   670,   739,   826,   932,  1072,  1214,  1244,  1324,  1512,  1543
1569,  1570,  1581,  1584,  1588,  1594,  1601,  1611,  1626,  1628,  1647,  1660,  1667,  1675,  1722,  1724
1726,  1746,  1771,  1795,  1803,  1811,  1825,  1832,  1847,  1848,  1874,  1879,  1881,  1894,  1897,  1924
1929,  1945,  1947,  1950,  1952,  1955,  1959,  1960,  1974,  1977,  1978,  1984,  1991,  1998,  2001,  2009
2011,  2017,  2037,  2041,  2047,  2049,  2059,  2069,  2092,  2094,  2096,  2108,  2109,  2110,  2116,  2117
2120,  2121,  2129,  2135,  2140,  2143,  2146,  2149,  2151,  2152,  2161,  2165,  2167,  2181,  2185,  2186
2209,  2211,  2212,  2230,  2232,  2239,  2249,  2250,  2264,  2272,  2300,  2306,  2314,  2323,  2326,  2328
2333,  2335,  2336,  2337,  2346,  2351,  2356,  2359,  2361,  2362,  2363,  2365,  2366,  2367,  2373,  2385
2386,  2387,  2388,  2398,  2407,  2410,  2424,  2431,  2432,  2435,  2437,  2446,  2447,  2468,  2472,  2480
2498,  2533,  2536,  2546,  2548,  2557,  2573,  2615,  2616,  2637,  2638,  2640,  2641,  2644,  2648,  2662
2663,  2668,  2672,  2673,  2677,  2855,  2887,  2890,  2916,  2918,  2921,  2931,  2934,  2937,  2971,  2984
3027,  3108,  3109,  3130,  3155,  3166,  3170,  3172,  3237,  3247,  3254,  3256,  3257,  3299,  3300,  3305
3306,  3307,  3314,  3316,  3317,  3330,  3331,  3337,  3368,  3382,  3399,  3402,  3407,  3413,  3425,  3434
3435,  3437,  3438,  3441,  3443,  3446,  3454,  3455,  3458,  3460,  3462,  3465,  3470,  3473,  3476,  3477
3486,  3494,  3496,  3497,  3503,  3507,  3523,  3525,  3527,  3537,  3557,  3558,  3566,  3571,  3585,  3589
3594,  3600,  3602,  3616,  3617,  3624,  3627,  3628,  3630,  3636,  3638,  3640,  3641,  3644,  3650,  3656
3659,  3680,  3683,  3694,  3717,  3719,  3723,  3730,  3852,  3872,  3875,  3959,  3962,  3963,  4008,  4062
4064,  4086,  4100,  4102,  4106,  4159,  4245,  4251,  4255,  4258,  4262,  4263,  4264,  4276,  4286,  4289
4301,  4305,  4320,  4321,  4323,  4331,  4332,  4339,  4362,  4376,  4380,  4383,  4386,  4387,  4395,  4396
4411,  4412,  4413,  4414,  4419,  4425,  4434,  4450,  4454,  4461,  4468,  4472,  4475,  4476,  4478,  4479
** ... 21 like lines cut
*Elset, elset=__PickedSurf568_S1, internal, instance=OPAL325_GIfiller-1
145,  747, 2172, 2659, 2780, 2974, 3119, 3236, 4076, 4080, 4995, 5551, 5967, 6076, 7375, 7515
8837, 8904, 9675
*Elset, elset=__PickedSurf568_S4, internal, instance=OPAL325_GIfiller-1
728,  1789,  2106,  2576,  2835,  3033,  3098,  3115,  3128,  3241,  4234,  4453,  5154,  5590,  5888,  6137
6245,  6248,  6347,  7028,  7187,  7400,  8125,  8269,  8327,  8501,  8520,  8549,  8661,  8710, 10341, 10356
10417, 10579, 10717
*Elset, elset=__PickedSurf568_S2, internal, instance=OPAL325_GIfiller-1
1749,  2010,  2294,  2321,  2433,  2824,  3015,  3492,  3516,  3715,  4105,  4273,  4491,  4832,  5169,  5509
6029,  6636,  6771,  6969,  7033,  7134,  8721, 10355, 10458
*Surface, type=ELEMENT, name=_PickedSurf568, internal
__PickedSurf568_S3, S3
__PickedSurf568_S1, S1
__PickedSurf568_S4, S4
__PickedSurf568_S2, S2
*Elset, elset=__PickedSurf653_S3, internal, instance=OPAL325_GIfiller-1
78,  1554,  1572,  1582,  1633,  1653,  1657,  1665,  1669,  1728,  1765,  1775,  1776,  1783,  1787,  1794
1800,  1806,  1810,  1826,  1828,  1841,  1852,  1866,  1882,  1885,  1888,  1907,  1913,  1921,  1922,  1923
1932,  1943,  1948,  1958,  1967,  1980,  1994,  1995,  2000,  2002,  2008,  2012,  2163,  2184,  2201,  2203
2237,  2238,  2240,  2248,  2492,  2515,  2521,  2768,  2773,  2788,  2908,  2912,  2944,  2960,  3298,  3304
3310,  3318,  3329,  3336,  3343,  3345,  3347,  3353,  3354,  3355,  3363,  3386,  3394,  3400,  3403,  3404
3539,  3545,  3555,  3560,  3563,  3568,  3573,  3578,  3750,  3753,  3906,  3945,  4169,  4172,  4173,  4186
4188,  4189,  4191,  4198,  4201,  4213,  4216,  4233,  4236,  4240,  4241,  4300,  4347,  4370,  4729,  4916
4928,  4932,  4950,  4952,  4957,  4964,  4991,  4993,  5003,  5027,  5035,  5195,  5337,  5439,  5457,  5473
5489,  5599,  5605,  5796,  5810,  5817,  5818,  5820,  5821,  5824,  5846,  5857,  5860,  5861,  5939,  5957
5963,  5966,  6002,  6059,  6097,  6099,  6170,  6209,  6212,  6221,  6328,  6329,  6332,  6337,  6344,  6351
6361,  6667,  6673,  6685,  6690,  6824,  6827,  6830,  6933,  6939,  6943,  6946,  7264,  7274,  7358,  7360
7362,  7381,  7405,  7406,  7422,  7434,  7451,  7452,  7528,  7529,  7694,  7758,  7887,  7892,  7934,  8164
8649,  9353,  9402, 10097, 10106, 10110
*Elset, elset=__PickedSurf653_S4, internal, instance=OPAL325_GIfiller-1
747,  1429,  1905,  1929,  1950,  2518,  2520,  2770,  3281,  3321,  3348,  3548,  3932,  4960,  5440,  6336
6425,  6688,  6873,  7098,  8984, 10105, 10659
*Elset, elset=__PickedSurf653_S1, internal, instance=OPAL325_GIfiller-1
1558, 1559, 1789, 2732, 3033, 3368, 5449, 7429, 8661, 9277
*Elset, elset=__PickedSurf653_S2, internal, instance=OPAL325_GIfiller-1
1771, 1939, 4168, 4350, 4396, 5202, 5335, 5956, 5988, 5991, 6076, 6314, 6360, 7570
*Surface, type=ELEMENT, name=_PickedSurf653, internal
__PickedSurf653_S3, S3
__PickedSurf653_S4, S4
__PickedSurf653_S2, S2
__PickedSurf653_S1, S1
*Elset, elset=__PickedSurf659_SNEG, internal, instance=OPAL325_PBody-1, generate
1,  146,    1
*Surface, type=ELEMENT, name=_PickedSurf659, internal
__PickedSurf659_SNEG, SNEG
*Elset, elset=__PickedSurf675_SNEG, internal, instance=OPAL325_PM_mid-1, generate
1,  337,    1
*Surface, type=ELEMENT, name=_PickedSurf675, internal
__PickedSurf675_SNEG, SNEG
*Elset, elset=__PickedSurf677_SPOS, internal, instance=OPAL325_PBody-1, generate
1,  146,    1
*Elset, elset=__PickedSurf677_SNEG, internal, instance=OPAL325_PBody-1, generate
1,  146,    1
*Surface, type=ELEMENT, name=_PickedSurf677, internal
__PickedSurf677_SPOS, SPOS
__PickedSurf677_SNEG, SNEG
*Elset, elset=__PickedSurf679_SPOS, internal, instance=OPAL325_PBody-1, generate
1,  146,    1
*Elset, elset=__PickedSurf679_SNEG, internal, instance=OPAL325_PBody-1, generate
1,  146,    1
*Surface, type=ELEMENT, name=_PickedSurf679, internal
__PickedSurf679_SPOS, SPOS
__PickedSurf679_SNEG, SNEG
*Elset, elset=__PickedSurf682_SNEG, internal, instance=OPAL325_LA-1, generate
513,  1200,     1
*Surface, type=ELEMENT, name=_PickedSurf682, internal
__PickedSurf682_SNEG, SNEG
*Elset, elset=__PickedSurf683_SNEG, internal, instance=OPAL325_LA-1, generate
1337,  2021,     1
*Surface, type=ELEMENT, name=_PickedSurf683, internal
__PickedSurf683_SNEG, SNEG
*Elset, elset=__PickedSurf688_S3, internal, instance=OPAL325_GIfiller-1
85,    87,   206,   335,   353,   445,   531,   654,   661,   670,   739,   821,   826,   932,  1072,  1087
1108,  1214,  1244,  1324,  1512,  1543,  1544,  1569,  1570,  1581,  1584,  1588,  1593,  1594,  1599,  1601
1611,  1618,  1626,  1628,  1647,  1660,  1661,  1664,  1667,  1675,  1676,  1682,  1683,  1693,  1696,  1703
1718,  1720,  1722,  1724,  1726,  1730,  1731,  1738,  1741,  1746,  1748,  1759,  1760,  1771,  1795,  1803
1811,  1825,  1832,  1838,  1847,  1848,  1851,  1865,  1874,  1875,  1876,  1879,  1881,  1894,  1897,  1906
1924,  1929,  1937,  1945,  1947,  1950,  1952,  1955,  1959,  1960,  1974,  1977,  1978,  1984,  1986,  1990
1991,  1998,  2001,  2009,  2011,  2017,  2037,  2040,  2041,  2047,  2049,  2053,  2059,  2069,  2092,  2094
2096,  2108,  2109,  2110,  2116,  2117,  2118,  2120,  2121,  2129,  2135,  2140,  2143,  2146,  2149,  2151
2152,  2161,  2164,  2165,  2167,  2173,  2181,  2185,  2186,  2209,  2211,  2212,  2230,  2232,  2239,  2249
2250,  2262,  2264,  2272,  2283,  2286,  2300,  2306,  2309,  2314,  2323,  2326,  2328,  2333,  2335,  2336
2337,  2339,  2346,  2351,  2356,  2359,  2361,  2362,  2363,  2365,  2366,  2367,  2373,  2385,  2386,  2387
2388,  2398,  2407,  2410,  2424,  2431,  2432,  2435,  2437,  2446,  2447,  2450,  2468,  2472,  2480,  2483
2484,  2486,  2490,  2493,  2495,  2498,  2517,  2519,  2528,  2531,  2533,  2536,  2542,  2545,  2546,  2547
2548,  2550,  2555,  2557,  2561,  2570,  2573,  2583,  2587,  2597,  2599,  2602,  2605,  2607,  2609,  2610
2615,  2616,  2628,  2636,  2637,  2638,  2640,  2641,  2644,  2645,  2648,  2657,  2661,  2662,  2663,  2668
2672,  2673,  2677,  2683,  2687,  2690,  2691,  2695,  2696,  2698,  2704,  2707,  2708,  2709,  2714,  2716
2718,  2723,  2731,  2736,  2739,  2749,  2750,  2752,  2756,  2761,  2778,  2785,  2792,  2795,  2802,  2804
2809,  2812,  2816,  2818,  2819,  2829,  2834,  2840,  2842,  2853,  2855,  2860,  2870,  2871,  2874,  2887
2890,  2891,  2892,  2897,  2900,  2902,  2915,  2916,  2918,  2921,  2931,  2933,  2934,  2937,  2942,  2946
2948,  2951,  2952,  2954,  2970,  2971,  2977,  2978,  2979,  2983,  2984,  2988,  2990,  2992,  2996,  2998
** ... 56 like lines cut
*Elset, elset=__PickedSurf688_S1, internal, instance=OPAL325_GIfiller-1
145,  747, 1648, 1905, 2172, 2520, 2618, 2659, 2780, 2947, 2974, 3119, 3236, 3639, 3977, 4076
4080, 4141, 4522, 4714, 4729, 4778, 4788, 4790, 4801, 4835, 4995, 5190, 5202, 5210, 5286, 5359
5457, 5473, 5529, 5530, 5551, 5706, 5967, 6076, 6216, 6567, 7059, 7166, 7375, 7405, 7515, 7578
7596, 7598, 7606, 7643, 8310, 8837, 8904, 9675
*Elset, elset=__PickedSurf688_S4, internal, instance=OPAL325_GIfiller-1
728,  1257,  1558,  1699,  1789,  1914,  2106,  2257,  2505,  2511,  2562,  2576,  2822,  2835,  3033,  3089
3098,  3115,  3128,  3241,  3701,  3888,  3999,  4175,  4234,  4453,  4802,  4817,  5154,  5243,  5256,  5397
5436,  5590,  5683,  5888,  5902,  6004,  6137,  6155,  6245,  6248,  6347,  6360,  6539,  6562,  6685,  6824
6841,  6853,  6897,  6916,  6926,  7028,  7075,  7187,  7278,  7400,  7516,  7610,  7615,  7642,  8125,  8269
8327,  8401,  8501,  8520,  8549,  8661,  8710,  9611, 10341, 10347, 10356, 10417, 10547, 10579, 10717
*Elset, elset=__PickedSurf688_S2, internal, instance=OPAL325_GIfiller-1
1559,  1598,  1749,  1852,  2010,  2294,  2321,  2433,  2655,  2741,  2824,  2964,  2965,  2966,  3015,  3222
3338,  3426,  3492,  3516,  3715,  3739,  3841,  3881,  3982,  4041,  4105,  4273,  4449,  4491,  4524,  4530
4602,  4630,  4765,  4832,  5169,  5290,  5377,  5440,  5509,  5695,  5770,  5846,  5877,  5895,  6029,  6495
6501,  6552,  6636,  6771,  6857,  6920,  6969,  7033,  7134,  7316,  7420,  7438,  7608,  8721, 10060, 10355
10458,
*Surface, type=ELEMENT, name=_PickedSurf688, internal
__PickedSurf688_S3, S3
__PickedSurf688_S1, S1
__PickedSurf688_S4, S4
__PickedSurf688_S2, S2
*Elset, elset=__PickedSurf689_SPOS, internal, instance=OPAL325_LA-1, generate
1,  2021,     1
*Surface, type=ELEMENT, name=_PickedSurf689, internal
__PickedSurf689_SPOS, SPOS
*Surface, type=NODE, name=_PickedSet661_CNS_, internal
_PickedSet661, 1.
*Surface, type=NODE, name=_PickedSet646_CNS_, internal
_PickedSet646, 1.
*Surface, type=NODE, name=_PickedSet681_CNS_, internal
_PickedSet681, 1.
*Surface, type=NODE, name=_PickedSet680_CNS_, internal
_PickedSet680, 1.
*Orientation, name="Datum csys-1"
1.,           0.,           0.,           0.,           1.,           0.
1, 0.
** Constraint: ATLA-N_LA-tie
*Tie, name=ATLA-N_LA-tie, adjust=no, position tolerance=4., type=NODE TO SURFACE, no thickness
_PickedSet661_CNS_, _PickedSurf683
** Constraint: ATLA_D_LA-tie
*Tie, name=ATLA_D_LA-tie, adjust=no, position tolerance=4., type=NODE TO SURFACE, no thickness
_PickedSet646_CNS_, _PickedSurf682
** Constraint: PBody-LA-Tie
*Tie, name=PBody-LA-Tie, adjust=no, position tolerance=40., type=NODE TO SURFACE, no thickness
_PickedSet681_CNS_, _PickedSurf677
** Constraint: PM-PBody
*Tie, name=PM-PBody, adjust=no, position tolerance=40., type=NODE TO SURFACE, no thickness
_PickedSet680_CNS_, _PickedSurf679
** Constraint: RefPane
**Display Body, instance=OPAL325_RefPlane_MirrorN_0318_20-1
*End Assembly
*Amplitude, name=AMP-1, definition=SMOOTH STEP
0.,              0.,             0.1,            0.33,             0.2,            0.61,             0.3,            0.83
0.4,            0.96,             0.5,              1.
*Amplitude, name=AMP-2, time=TOTAL TIME
0.,              0.,            0.05,            0.08,             0.1,            0.15,            0.15,            0.23
0.2,             0.3,            0.25,            0.38,             0.3,            0.45,            0.35,            0.52
0.4,            0.58,            0.45,            0.64,             0.5,             0.7,            0.55,            0.76
0.6,             0.8,            0.65,            0.85,             0.7,            0.89,            0.75,            0.92
0.8,            0.95,            0.85,            0.97,             0.9,            0.99,              1.,              1.
*Amplitude, name=AMP-3
0.,              0.,           0.025,            0.08,            0.05,            0.15,           0.075,            0.23
0.1,             0.3,           0.125,            0.38,            0.15,            0.45,           0.175,            0.52
0.2,            0.58,           0.225,            0.64,            0.25,             0.7,           0.275,            0.76
0.3,             0.8,           0.325,            0.85,            0.35,            0.89,           0.375,            0.92
0.4,            0.95,           0.425,            0.97,            0.45,            0.99,             0.5,              1.
*Amplitude, name=AMP-4
0.,              0.,          0.0125,            0.08,           0.025,            0.15,          0.0375,            0.23
0.05,             0.3,          0.0625,            0.38,           0.075,            0.45,          0.0875,            0.52
0.1,            0.58,          0.1125,            0.64,           0.125,             0.7,          0.1375,            0.76
0.15,             0.8,          0.1625,            0.85,           0.175,            0.89,          0.1875,            0.92
0.2,            0.95,          0.2125,            0.97,           0.225,            0.99,            0.25,              1.
*Amplitude, name="active contraction"
0.,              0.,            0.05,              0.,             0.1,              0.,            0.15,              0.
0.2,              0.,            0.25,              0.,             0.3,              0.,            0.35,              0.
0.4,              0.,            0.45,              0.,             0.5,              0.,            0.55,            0.76
0.6,             0.8,            0.65,            0.85,             0.7,            0.89,            0.75,            0.92
0.8,            0.95,            0.85,            0.97,             0.9,            0.99,              1.,              1.
*Amplitude, name="active contraction-all time"
0.,              0.,            0.05,            0.08,             0.1,            0.15,            0.15,            0.23
0.2,             0.3,            0.25,            0.38,             0.3,            0.45,            0.35,            0.52
0.4,            0.58,            0.45,            0.64,             0.5,             0.7,            0.55,            0.76
0.6,             0.8,            0.65,            0.85,             0.7,            0.89,            0.75,            0.92
0.8,            0.95,            0.85,            0.97,             0.9,            0.99,              1.,              1.
*Amplitude, name="smooth step", definition=SMOOTH STEP
0.,              0.,            0.05,            0.08,             0.1,            0.15,            0.15,            0.23
0.2,             0.3,            0.25,            0.38,             0.3,            0.45,            0.35,            0.52
0.4,            0.58,            0.45,            0.64,             0.5,             0.7,            0.55,            0.76
0.6,             0.8,            0.65,            0.85,             0.7,            0.89,            0.75,            0.92
0.8,            0.95,            0.85,            0.97,             0.9,            0.99,              1.,              1.
**
** MATERIALS
**
*Material, name=ATFP_HYPER
*Density
1.1e-05,
*Hyperelastic, n=2, test data input
*Uniaxial Test Data
1.38501, 0.1
3.18666, 0.2
5.5303, 0.3
8.57895, 0.4
12.5448, 0.5
17.7036, 0.6
24.4143, 0.7
33.1437, 0.8
44.4993, 0.9
59.271,  1.
*Material, name=ATFP_HYPER_highdesity
*Density
0.00011,
*Hyperelastic, n=2, test data input
*Uniaxial Test Data
1.38501, 0.1
3.18666, 0.2
5.5303, 0.3
8.57895, 0.4
12.5448, 0.5
17.7036, 0.6
24.4143, 0.7
33.1437, 0.8
44.4993, 0.9
59.271,  1.
*Material, name=AVW_HYPER
*Density
1.1e-06,
*Hyperelastic, n=2, test data input
*Uniaxial Test Data
0.0138501, 0.1
0.0318666, 0.2
0.055303, 0.3
0.0857897, 0.4
0.125448, 0.5
0.177036, 0.6
0.244143, 0.7
0.331437, 0.8
0.444993, 0.9
0.592708,  1.
*Material, name=AVW_HYPER20
*Density
1.1e-06,
*Hyperelastic, n=2, test data input
*Uniaxial Test Data
0.00138501, 0.1
0.00318666, 0.2
0.0055303, 0.3
0.00857897, 0.4
0.0125448, 0.5
0.0177036, 0.6
0.0244143, 0.7
0.0331437, 0.8
0.0444993, 0.9
0.0592708,  1.
*Material, name="AVW_HYPER20_low density"
*Density
1.1e-07,
*Hyperelastic, n=2, test data input
*Uniaxial Test Data
0.00138501, 0.1
0.00318666, 0.2
0.0055303, 0.3
0.00857897, 0.4
0.0125448, 0.5
0.0177036, 0.6
0.0244143, 0.7
0.0331437, 0.8
0.0444993, 0.9
0.0592708,  1.
*Material, name=AVW_HYPER_200
*Density
1.1e-06,
*Hyperelastic, n=2, test data input
*Uniaxial Test Data
0.0277002, 0.1
0.0637332, 0.2
0.110606, 0.3
0.171579, 0.4
0.250896, 0.5
0.354072, 0.6
0.488286, 0.7
0.662874, 0.8
0.889986, 0.9
1.18542,  1.
*Material, name=CLPara_H100
*Density
9e-10,
*Hyperelastic, n=2, test data input
*Uniaxial Test Data
0.00268578,  0.1
0.0055405,  0.2
0.00857477,  0.3
0.0117999,  0.4
0.0152279,  0.5
0.0188715,  0.6
0.0227443,  0.7
0.0268606,  0.8
0.0312359,  0.9
0.0358864,   1.
1e-05, -0.1
1e-05, -0.2
1e-05, -0.3
1e-05, -0.4
1e-05, -0.5
1e-05, -0.6
1e-05, -0.7
1e-05, -0.8
1e-05, -0.9
*Material, name=CLUS_H1
*Density
9e-07,
*Hyperelastic, n=2, test data input
*Uniaxial Test Data
2.68578e-05,  0.1
5.5405e-05,  0.2
8.57477e-05,  0.3
0.000117999,  0.4
0.000152279,  0.5
0.000188715,  0.6
0.000227443,  0.7
0.000268606,  0.8
0.000312359,  0.9
0.000358864,   1.
-1e-06, -0.1
-1e-06, -0.2
-1e-06, -0.3
-1e-06, -0.4
-1e-06, -0.5
-1e-06, -0.6
-1e-06, -0.7
-1e-06, -0.8
-1e-06, -0.9
*Material, name=CLUS_H5
*Density
9e-07,
*Hyperelastic, n=2, test data input
*Uniaxial Test Data
0.000134289, 0.1
0.000277025, 0.2
0.000428739, 0.3
0.000589995, 0.4
0.000761395, 0.5
0.000943575, 0.6
0.00113722, 0.7
0.00134303, 0.8
0.00156179, 0.9
0.00179432,  1.
*Material, name=CLUS_H10
*Density
9e-07,
*Hyperelastic, n=2, test data input
*Uniaxial Test Data
0.000268578,  0.1
0.00055405,  0.2
0.000857477,  0.3
0.00117999,  0.4
0.00152279,  0.5
0.00188715,  0.6
0.00227443,  0.7
0.00268606,  0.8
0.00312359,  0.9
0.00358864,   1.
1e-05, -0.1
1e-05, -0.2
1e-05, -0.3
1e-05, -0.4
1e-05, -0.5
1e-05, -0.6
1e-05, -0.7
1e-05, -0.8
1e-05, -0.9
*Material, name=CLUS_H50
*Density
9e-07,
*Hyperelastic, n=2, test data input
*Uniaxial Test Data
0.00134289, 0.1
0.00277025, 0.2
0.00428739, 0.3
0.00589995, 0.4
0.00761395, 0.5
0.00943575, 0.6
0.0113721, 0.7
0.0134303, 0.8
0.015618, 0.9
0.0179432,  1.
*Material, name=CLUS_H100
*Density
9e-07,
*Hyperelastic, n=2, test data input
*Uniaxial Test Data
0.00268578,  0.1
0.0055405,  0.2
0.00857477,  0.3
0.0117999,  0.4
0.0152279,  0.5
0.0188715,  0.6
0.0227443,  0.7
0.0268606,  0.8
0.0312359,  0.9
0.0358864,   1.
1e-05, -0.1
1e-05, -0.2
1e-05, -0.3
1e-05, -0.4
1e-05, -0.5
1e-05, -0.6
1e-05, -0.7
1e-05, -0.8
1e-05, -0.9
*Material, name=CLpara_H10
*Density
9e-07,
*Hyperelastic, n=2, test data input
*Uniaxial Test Data
0.000134289,  0.1
0.000277025,  0.2
0.000428739,  0.3
0.000589995,  0.4
0.000761395,  0.5
0.000943575,  0.6
0.00113722,  0.7
0.00134303,  0.8
0.00156179,  0.9
0.00179432,   1.
1e-05, -0.1
1e-05, -0.2
1e-05, -0.3
1e-05, -0.4
1e-05, -0.5
1e-05, -0.6
1e-05, -0.7
1e-05, -0.8
1e-05, -0.9
*Material, name=PARAVAG_H
*Density
9e-07,
*Hyperelastic, n=2, test data input
*Uniaxial Test Data
0.00268578,  0.1
0.000268578,  0.2
0.00055405,  0.3
0.000857478,  0.4
0.00117999,  0.5
0.00152279,  0.6
0.00188715,  0.7
0.00227443,  0.8
0.00268606,  0.9
0.00312359,   1.
1e-05, -0.1
1e-05, -0.2
1e-05, -0.3
1e-05, -0.4
1e-05, -0.5
1e-05, -0.6
1e-05, -0.7
1e-05, -0.8
1e-05, -0.9
*Material, name=PARAVAG_H_highdensity
*Density
9e-07,
*Hyperelastic, n=2, test data input
*Uniaxial Test Data
0.0268578, 0.1
0.00268578, 0.2
0.0055405, 0.3
0.00857478, 0.4
0.0117999, 0.5
0.0152279, 0.6
0.0188715, 0.7
0.0227443, 0.8
0.0268606, 0.9
0.0312359,  1.
*Material, name=PARAVAG_H_lowdenstiy
*Density
9e-09,
*Hyperelastic, n=2, test data input
*Uniaxial Test Data
0.00268578,  0.1
0.000268578,  0.2
0.00055405,  0.3
0.000857478,  0.4
0.00117999,  0.5
0.00152279,  0.6
0.00188715,  0.7
0.00227443,  0.8
0.00268606,  0.9
0.00312359,   1.
1e-05, -0.1
1e-05, -0.2
1e-05, -0.3
1e-05, -0.4
1e-05, -0.5
1e-05, -0.6
1e-05, -0.7
1e-05, -0.8
1e-05, -0.9
*Material, name=PCM_HYPER10
*Density
1.1e-06,
*Hyperelastic, n=2, test data input
*Uniaxial Test Data
0.0014, 0.1
0.0032, 0.2
0.0055, 0.3
0.0086, 0.4
0.0125, 0.5
0.0177, 0.6
0.0244, 0.7
0.0331, 0.8
0.0445, 0.9
0.06,  1.
*Material, name=PCM_HYPER20
*Density
1.1e-06,
*Hyperelastic, n=2, test data input
*Uniaxial Test Data
0.00277002, 0.1
0.00637332, 0.2
0.0110606, 0.3
0.0171579, 0.4
0.0250896, 0.5
0.0354072, 0.6
0.0488286, 0.7
0.0662874, 0.8
0.0889986, 0.9
0.118542,  1.
*Material, name=PCM_HYPER40
*Density
1.1e-06,
*Hyperelastic, n=2, test data input
*Uniaxial Test Data
0.00554004, 0.1
0.0127466, 0.2
0.0221212, 0.3
0.0343159, 0.4
0.0501792, 0.5
0.0708144, 0.6
0.0976572, 0.7
0.132575, 0.8
0.177997, 0.9
0.237083,  1.
*Material, name=PCM_HYPER60
*Density
1.1e-06,
*Hyperelastic, n=2, test data input
*Uniaxial Test Data
0.00831006, 0.1
0.01912, 0.2
0.0331818, 0.3
0.0514738, 0.4
0.0752688, 0.5
0.106222, 0.6
0.146486, 0.7
0.198862, 0.8
0.266996, 0.9
0.355625,  1.
*Material, name=PCM_HYPER80
*Density
1.1e-06,
*Hyperelastic, n=2, test data input
*Uniaxial Test Data
0.0110801, 0.1
0.0254933, 0.2
0.0442424, 0.3
0.0686318, 0.4
0.100358, 0.5
0.141629, 0.6
0.195314, 0.7
0.26515, 0.8
0.355994, 0.9
0.474166,  1.
*Material, name=PCM_HYPER100
*Density
1.1e-06,
*Hyperelastic, n=2, test data input
*Uniaxial Test Data
0.0138501, 0.1
0.0318666, 0.2
0.055303, 0.3
0.0857897, 0.4
0.125448, 0.5
0.177036, 0.6
0.244143, 0.7
0.331437, 0.8
0.444993, 0.9
0.592708,  1.
*Material, name=PCM_HYPER300
*Density
1.1e-06,
*Hyperelastic, n=2, test data input
*Uniaxial Test Data
0.0415503, 0.1
0.0955998, 0.2
0.165909, 0.3
0.257369, 0.4
0.376344, 0.5
0.531108, 0.6
0.732429, 0.7
0.994311, 0.8
1.33498, 0.9
1.77812,  1.
**
** INTERACTION PROPERTIES
**
*Surface Interaction, name=Penalty
*Friction
1.,
*Surface Interaction, name=frictionless
*Friction
0.,
*Surface Interaction, name=rough
*Friction, rough
**
** BOUNDARY CONDITIONS
**
** Name: ATFP_Fix Type: Symmetry/Antisymmetry/Encastre
*Boundary
_PickedSet545, PINNED
** Name: ATFPbackends Type: Symmetry/Antisymmetry/Encastre
*Boundary
_PickedSet487, PINNED
** Name: ATLA_Fix Type: Symmetry/Antisymmetry/Encastre
*Boundary
_PickedSet586, PINNED
** Name: CL&US Type: Symmetry/Antisymmetry/Encastre
*Boundary
_PickedSet542, PINNED
** Name: LA-PBfix Type: Symmetry/Antisymmetry/Encastre
*Boundary
_PickedSet685, PINNED
** Name: LAposterior Type: Symmetry/Antisymmetry/Encastre
*Boundary
_PickedSet684, PINNED
** Name: PM Type: Displacement/Rotation
*Boundary
_PickedSet671, 1, 1
_PickedSet671, 2, 2
_PickedSet671, 3, 3
_PickedSet671, 4, 4
_PickedSet671, 5, 5
_PickedSet671, 6, 6
**
** INTERACTIONS
**
** Interaction: Self-Contact
*Contact, op=NEW
*Contact Inclusions, ALL EXTERIOR
*Contact Property Assignment
,  , frictionless
** ----------------------------------------------------------------
**
** STEP: Step-1
**
*Step, name=Step-1, nlgeom=YES
*Dynamic, Explicit
, 1.,, 0.1
*Bulk Viscosity
0.06, 1.2
**
** LOADS
**
** Name: pressure   Type: Pressure
*Dsload, amplitude="smooth step"
_PickedSurf560, P, 0.01
** Name: traction   Type: Surface traction
*Dsload, amplitude=AMP-4, orientation="Datum csys-1"
_PickedSurf544, TRVEC, 5e-05, 0., 0., -1.
**
** INTERACTIONS
**
** Interaction: AVW-Filler-Contact
*Contact Pair, interaction=frictionless, mechanical constraint=KINEMATIC, cpset=AVW-Filler-Contact
_PickedSurf555, _PickedSurf568
** Interaction: Filler-LA-Contact
*Contact Pair, interaction=Penalty, mechanical constraint=KINEMATIC, cpset=Filler-LA-Contact
_PickedSurf689, _PickedSurf688
** Interaction: Filler-PBody
*Contact Pair, interaction=rough, mechanical constraint=KINEMATIC, cpset=Filler-PBody
_PickedSurf659, _PickedSurf653
**
** OUTPUT REQUESTS
**
*Restart, write, number interval=1, time marks=NO
**
** FIELD OUTPUT: F-Output-1
**
*Output, field, number interval=10
*Node Output
A, COORD, RF, U, V
*Element Output, directions=YES
ELEDEN, ELEN, ENER, LE, PE, PEEQ, S
*Contact Output
CSTRESS,
**
** HISTORY OUTPUT: H-Output-1
**
*Output, history, variable=PRESELECT
*End Step
