<?xml version="1.0" encoding="ISO-8859-1"?>
<febio_spec version="4.0">
	<Module type="solid"/>
	<Control>
		<analysis>STATIC</analysis>
		<time_steps>10</time_steps>
		<step_size>0.025</step_size>
		<plot_zero_state>0</plot_zero_state>
		<plot_range>0,-1</plot_range>
		<plot_level>PLOT_MAJOR_ITRS</plot_level>
		<output_level>OUTPUT_MAJOR_ITRS</output_level>
		<plot_stride>1</plot_stride>
		<adaptor_re_solve>1</adaptor_re_solve>
		<time_stepper type="default">
			<max_retries>5</max_retries>
			<opt_iter>11</opt_iter>
			<dtmin>0</dtmin>
			<dtmax>0.1</dtmax>
			<aggressiveness>0</aggressiveness>
			<cutback>0.5</cutback>
			<dtforce>0</dtforce>
		</time_stepper>
		<solver type="solid">
			<symmetric_stiffness>symmetric</symmetric_stiffness>
			<equation_scheme>staggered</equation_scheme>
			<equation_order>default</equation_order>
			<optimize_bw>0</optimize_bw>
			<lstol>0.9</lstol>
			<lsmin>0.01</lsmin>
			<lsiter>5</lsiter>
			<max_refs>15</max_refs>
			<check_zero_diagonal>0</check_zero_diagonal>
			<zero_diagonal_tol>0</zero_diagonal_tol>
			<force_partition>0</force_partition>
			<reform_each_time_step>1</reform_each_time_step>
			<reform_augment>0</reform_augment>
			<diverge_reform>1</diverge_reform>
			<min_residual>1e-20</min_residual>
			<max_residual>0</max_residual>
			<dtol>0.001</dtol>
			<etol>0.01</etol>
			<rtol>0</rtol>
			<rhoi>-2</rhoi>
			<alpha>1</alpha>
			<beta>0.25</beta>
			<gamma>0.5</gamma>
			<logSolve>0</logSolve>
			<arc_length>0</arc_length>
			<arc_length_scale>0</arc_length_scale>
			<qn_method type="BFGS">
				<max_ups>10</max_ups>
				<max_buffer_size>0</max_buffer_size>
				<cycle_buffer>1</cycle_buffer>
				<cmax>100000</cmax>
			</qn_method>
		</solver>
	</Control>
	<Globals>
		<Constants>
			<T>0</T>
			<P>0</P>
			<R>8.31446</R>
			<Fc>96485.3</Fc>
		</Constants>
	</Globals>
	<Material>
		<material id="1" name="Material2" type="neo-Hookean">
			<density>1</density>
			<E>0.4</E>
			<v>0.1</v>
		</material>
	</Material>
	<Mesh>
		<Nodes name="Object2">
			<node id="1">8,-1,0</node>
			<node id="2">3,4,0</node>
			<node id="3">3,3.5,0</node>
			<node id="4">7.5,-1,0</node>
			<node id="5">8,-1,3</node>
			<node id="6">3,4,3</node>
			<node id="7">3,3.5,3</node>
			<node id="8">7.5,-1,3</node>
			<node id="9">7.99397728,-0.754661628,0</node>
			<node id="10">7.97592363,-0.509914298,0</node>
			<node id="11">7.94588255,-0.266347628,0</node>
			<node id="12">7.9039264,-0.0245483899,0</node>
			<node id="13">7.85015627,0.2149009,0</node>
			<node id="14">7.78470168,0.451423386,0</node>
			<node id="15">7.70772033,0.684449267,0</node>
			<node id="16">7.61939766,0.913417162,0</node>
			<node id="17">7.51994647,1.13777547,0</node>
			<node id="18">7.40960632,1.35698368,0</node>
			<node id="19">7.28864305,1.57051372,0</node>
			<node id="20">7.15734806,1.77785117,0</node>
<!-- ... 18493 like lines cut -->
		</Nodes>
		<Elements type="hex8" name="Part2">
			<elem id="1">1,9,3603,301,132,317,4099,2718</elem>
			<elem id="2">9,10,3604,3603,317,318,4100,4099</elem>
			<elem id="3">10,11,3605,3604,318,319,4101,4100</elem>
			<elem id="4">11,12,3606,3605,319,320,4102,4101</elem>
			<elem id="5">12,13,3607,3606,320,321,4103,4102</elem>
			<elem id="6">13,14,3608,3607,321,322,4104,4103</elem>
			<elem id="7">14,15,3609,3608,322,323,4105,4104</elem>
			<elem id="8">15,16,3610,3609,323,324,4106,4105</elem>
			<elem id="9">16,17,3611,3610,324,325,4107,4106</elem>
			<elem id="10">17,18,3612,3611,325,326,4108,4107</elem>
			<elem id="11">18,19,3613,3612,326,327,4109,4108</elem>
			<elem id="12">19,20,3614,3613,327,328,4110,4109</elem>
			<elem id="13">20,21,3615,3614,328,329,4111,4110</elem>
			<elem id="14">21,22,3616,3615,329,330,4112,4111</elem>
			<elem id="15">22,23,3617,3616,330,331,4113,4112</elem>
			<elem id="16">23,24,3618,3617,331,332,4114,4113</elem>
			<elem id="17">24,25,3619,3618,332,333,4115,4114</elem>
			<elem id="18">25,26,3620,3619,333,334,4116,4115</elem>
			<elem id="19">26,27,3621,3620,334,335,4117,4116</elem>
			<elem id="20">27,28,3622,3621,335,336,4118,4117</elem>
<!-- ... 16364 like lines cut -->
		</Elements>
		<Surface name="ZeroDisplacement1">
			<quad4 id="1">2,133,1278,40</quad4>
			<quad4 id="2">133,134,1279,1278</quad4>
			<quad4 id="3">134,135,1280,1279</quad4>
			<quad4 id="4">135,136,1281,1280</quad4>
			<quad4 id="5">136,137,1282,1281</quad4>
			<quad4 id="6">137,138,1283,1282</quad4>
			<quad4 id="7">138,139,1284,1283</quad4>
			<quad4 id="8">139,140,1285,1284</quad4>
			<quad4 id="9">140,141,1286,1285</quad4>
			<quad4 id="10">141,142,1287,1286</quad4>
			<quad4 id="11">142,143,1288,1287</quad4>
			<quad4 id="12">143,144,1289,1288</quad4>
			<quad4 id="13">144,145,1290,1289</quad4>
			<quad4 id="14">145,146,1291,1290</quad4>
			<quad4 id="15">146,147,1292,1291</quad4>
			<quad4 id="16">147,3,148,1292</quad4>
			<quad4 id="17">40,1278,1293,41</quad4>
			<quad4 id="18">1278,1279,1294,1293</quad4>
			<quad4 id="19">1279,1280,1295,1294</quad4>
			<quad4 id="20">1280,1281,1296,1295</quad4>
<!-- ... 1004 like lines cut -->
		</Surface>
		<Surface name="Pressure1">
			<quad4 id="1">3,194,1743,148</quad4>
			<quad4 id="2">194,195,1744,1743</quad4>
			<quad4 id="3">195,196,1745,1744</quad4>
			<quad4 id="4">196,197,1746,1745</quad4>
			<quad4 id="5">197,198,1747,1746</quad4>
			<quad4 id="6">198,199,1748,1747</quad4>
			<quad4 id="7">199,200,1749,1748</quad4>
			<quad4 id="8">200,201,1750,1749</quad4>
			<quad4 id="9">201,202,1751,1750</quad4>
			<quad4 id="10">202,203,1752,1751</quad4>
			<quad4 id="11">203,204,1753,1752</quad4>
			<quad4 id="12">204,205,1754,1753</quad4>
			<quad4 id="13">205,206,1755,1754</quad4>
			<quad4 id="14">206,207,1756,1755</quad4>
			<quad4 id="15">207,208,1757,1756</quad4>
			<quad4 id="16">208,209,1758,1757</quad4>
			<quad4 id="17">209,210,1759,1758</quad4>
			<quad4 id="18">210,211,1760,1759</quad4>
			<quad4 id="19">211,212,1761,1760</quad4>
			<quad4 id="20">212,213,1762,1761</quad4>
<!-- ... 1004 like lines cut -->
		</Surface>
	</Mesh>
	<MeshDomains>
		<SolidDomain name="Part2" mat="Material2"/>
	</MeshDomains>
	<Boundary>
		<bc name="ZeroDisplacement1" node_set="@surface:ZeroDisplacement1" type="zero displacement">
			<x_dof>1</x_dof>
			<y_dof>1</y_dof>
			<z_dof>1</z_dof>
		</bc>
	</Boundary>
	<Loads>
		<surface_load name="Pressure1" surface="Pressure1" type="pressure">
			<pressure lc="1">0.02</pressure>
			<symmetric_stiffness>1</symmetric_stiffness>
			<linear>0</linear>
			<shell_bottom>0</shell_bottom>
		</surface_load>
	</Loads>
	<LoadData>
		<load_controller id="1" name="LC1" type="loadcurve">
			<interpolate>LINEAR</interpolate>
			<extend>CONSTANT</extend>
			<points>
				<pt>0,0</pt>
				<pt>1,1</pt>
			</points>
		</load_controller>
	</LoadData>
	<Output>
		<plotfile type="febio">
			<var type="displacement"/>
			<var type="stress"/>
			<var type="relative volume"/>
		</plotfile>
	</Output>
</febio_spec>
