<?xml version="1.0" encoding="ISO-8859-1"?>
<febio_spec version="4.0">
	<Module type="solid"/>
	<Control>
		<analysis>STATIC</analysis>
		<time_steps>10</time_steps>
		<step_size>0.1</step_size>
		<plot_zero_state>0</plot_zero_state>
		<plot_range>0,-1</plot_range>
		<plot_level>PLOT_MAJOR_ITRS</plot_level>
		<output_level>OUTPUT_MAJOR_ITRS</output_level>
		<plot_stride>1</plot_stride>
		<output_stride>1</output_stride>
		<adaptor_re_solve>1</adaptor_re_solve>
		<time_stepper type="default">
			<max_retries>5</max_retries>
			<opt_iter>11</opt_iter>
			<dtmin>0</dtmin>
			<dtmax>0.1</dtmax>
			<aggressiveness>0</aggressiveness>
			<cutback>0.5</cutback>
			<dtforce>0</dtforce>
		</time_stepper>
		<solver type="solid">
			<symmetric_stiffness>symmetric</symmetric_stiffness>
			<equation_scheme>staggered</equation_scheme>
			<equation_order>default</equation_order>
			<optimize_bw>0</optimize_bw>
			<lstol>0.9</lstol>
			<lsmin>0.01</lsmin>
			<lsiter>5</lsiter>
			<max_refs>15</max_refs>
			<check_zero_diagonal>0</check_zero_diagonal>
			<zero_diagonal_tol>0</zero_diagonal_tol>
			<force_partition>0</force_partition>
			<reform_each_time_step>1</reform_each_time_step>
			<reform_augment>0</reform_augment>
			<diverge_reform>1</diverge_reform>
			<min_residual>1e-20</min_residual>
			<max_residual>0</max_residual>
			<dtol>0.001</dtol>
			<etol>0.01</etol>
			<rtol>0</rtol>
			<rhoi>-2</rhoi>
			<alpha>1</alpha>
			<beta>0.25</beta>
			<gamma>0.5</gamma>
			<logSolve>0</logSolve>
			<arc_length>0</arc_length>
			<arc_length_scale>0</arc_length_scale>
			<qn_method type="BFGS">
				<max_ups>10</max_ups>
				<max_buffer_size>0</max_buffer_size>
				<cycle_buffer>1</cycle_buffer>
				<cmax>100000</cmax>
			</qn_method>
		</solver>
	</Control>
	<Globals>
		<Constants>
			<T>0</T>
			<P>0</P>
			<R>8.31446</R>
			<Fc>96485.3</Fc>
		</Constants>
	</Globals>
	<Material>
		<material id="1" name="Material1" type="damage neo-Hookean">
			<density>1</density>
			<E>10</E>
			<v>0.2</v>
			<a>0.014</a>
			<b>0.34</b>
		</material>
	</Material>
	<Mesh>
		<Nodes name="Object5">
			<node id="1">2,-3.63709063e-13,3.35393734e-14</node>
			<node id="2">3,3.39772654e-12,1.9999129e-15</node>
			<node id="3">2.66453526e-15,2,-3.99649574e-17</node>
			<node id="4">-3.37507799e-14,3,-5.57670517e-17</node>
			<node id="5">-2,-1.99840144e-14,-2.22751204e-16</node>
			<node id="6">-3,1.15463195e-14,-1.39815745e-16</node>
			<node id="7">-2.98427949e-13,-2,5.18028004e-15</node>
			<node id="8">-1.11910481e-13,-3,8.06418524e-16</node>
			<node id="9">1.97390159,-6.96166215e-14,4</node>
			<node id="10">2.99678034,-2.07056594e-14,4</node>
			<node id="11">-8.39328607e-14,1.97390159,4</node>
			<node id="12">6.99440506e-14,2.99678034,4</node>
			<node id="13">-1.97390159,-1.10744747e-13,4</node>
			<node id="14">-2.99678034,4.5519144e-14,4</node>
			<node id="15">-3.02757819e-13,-1.97390159,4</node>
			<node id="16">9.45910017e-14,-2.99678034,4</node>
			<node id="17">2.31665124,-1.78079773e-13,4.51032878e-15</node>
			<node id="18">2.57201026,-2.38031816e-13,1.06987406e-15</node>
			<node id="19">2.79278621,-6.17728091e-13,7.79846201e-16</node>
			<node id="20">3.00001368,-2.3829827e-12,0.5</node>
<!-- ... 1420 like lines cut -->
		</Nodes>
		<Elements type="hex8" name="Part5">
			<elem id="1">1,17,367,77,36,209,853,306</elem>
			<elem id="2">17,18,368,367,209,210,854,853</elem>
			<elem id="3">18,19,369,368,210,211,855,854</elem>
			<elem id="4">19,2,37,369,211,20,230,855</elem>
			<elem id="5">77,367,364,76,306,853,856,305</elem>
			<elem id="6">367,368,365,364,853,854,857,856</elem>
			<elem id="7">368,369,366,365,854,855,858,857</elem>
			<elem id="8">369,37,38,366,855,230,231,858</elem>
			<elem id="9">76,364,361,75,305,856,859,304</elem>
			<elem id="10">364,365,362,361,856,857,860,859</elem>
			<elem id="11">365,366,363,362,857,858,861,860</elem>
			<elem id="12">366,38,39,363,858,231,232,861</elem>
			<elem id="13">75,361,358,74,304,859,862,303</elem>
			<elem id="14">361,362,359,358,859,860,863,862</elem>
			<elem id="15">362,363,360,359,860,861,864,863</elem>
			<elem id="16">363,39,40,360,861,232,233,864</elem>
			<elem id="17">74,358,355,73,303,862,865,302</elem>
			<elem id="18">358,359,356,355,862,863,866,865</elem>
			<elem id="19">359,360,357,356,863,864,867,866</elem>
			<elem id="20">360,40,41,357,864,233,234,867</elem>
<!-- ... 1004 like lines cut -->
		</Elements>
	</Mesh>
	<MeshDomains>
		<SolidDomain name="Part5" mat="Material1"/>
	</MeshDomains>
	<Output>
		<plotfile type="febio">
			<var type="displacement"/>
			<var type="stress"/>
			<var type="relative volume"/>
		</plotfile>
	</Output>
</febio_spec>
